/*---------------------------------------------------------------------------*\
  =========                 |
  \\      /  F ield         | OpenFOAM: The Open Source CFD Toolbox
   \\    /   O peration     | Website:  https://openfoam.org
    \\  /    A nd           | Version:  13
     \\/     M anipulation  |
\*---------------------------------------------------------------------------*/
Build  : 13-283650f815b4
Exec   : foamRun
Date   : Nov 05 2025
Time   : 10:33:49
Host   : "c83f608f4b6a"
PID    : 43925
I/O    : uncollated
Case   : /home/student/OpenFOAM/student-13/run/aeroHPC/OpenFOAM/tutorials/shockThermo/shockTube
nProcs : 1
sigFpe : Enabling floating point exception trapping (FOAM_SIGFPE).
fileModificationChecking : Monitoring run-time modified files using timeStampMaster (fileModificationSkew 10)
allowSystemOperations : Allowing user-supplied system call operations

// * * * * * * * * * * * * * * * * * * * * * * * * * * * * * * * * * * * * * //
Create time

Create mesh for time = 0

Selecting solver shockThermo
Selecting thermodynamics package 
{
    type            highEnthalpyThermo;
    mixture         coefficientWilkeMulticomponentMixture;
    transport       sutherland;
    thermo          janaf;
    energy          sensibleInternalEnergy;
    equationOfState perfectGas;
    specie          specie;
}

--> FOAM Warning : 
    From function const Foam::HashTable<Foam::List<int>, Foam::word>& Foam::polyBoundaryMesh::groupPatchIndices() const
    in file meshes/polyMesh/polyBoundaryMesh/polyBoundaryMesh.C at line 506
    Removing patchGroup 'empty' which clashes with patch 1 of the same name.
--> FOAM Warning : 
    From function Foam::scalar Foam::janafThermo<EquationOfState>::limit(Foam::scalar) const [with EquationOfState = Foam::perfectGas<Foam::specie>; Foam::scalar = double]
    in file /home/student/OpenFOAM/student-13/run/OpenFOAM-13/src/thermophysicalModels/specie/lnInclude/janafThermoI.H at line 117
    attempt to use janafThermo<EquationOfState> out of temperature range 298.15 -> 20000;  T = 278.746
--> FOAM Warning : 
    From function Foam::scalar Foam::janafThermo<EquationOfState>::limit(Foam::scalar) const [with EquationOfState = Foam::perfectGas<Foam::specie>; Foam::scalar = double]
    in file /home/student/OpenFOAM/student-13/run/OpenFOAM-13/src/thermophysicalModels/specie/lnInclude/janafThermoI.H at line 117
    attempt to use janafThermo<EquationOfState> out of temperature range 298.15 -> 20000;  T = 278.803
--> FOAM Warning : 
    From function Foam::scalar Foam::janafThermo<EquationOfState>::limit(Foam::scalar) const [with EquationOfState = Foam::perfectGas<Foam::specie>; Foam::scalar = double]
    in file /home/student/OpenFOAM/student-13/run/OpenFOAM-13/src/thermophysicalModels/specie/lnInclude/janafThermoI.H at line 117
    attempt to use janafThermo<EquationOfState> out of temperature range 298.15 -> 20000;  T = 278.746
--> FOAM Warning : 
    From function Foam::scalar Foam::janafThermo<EquationOfState>::limit(Foam::scalar) const [with EquationOfState = Foam::perfectGas<Foam::specie>; Foam::scalar = double]
    in file /home/student/OpenFOAM/student-13/run/OpenFOAM-13/src/thermophysicalModels/specie/lnInclude/janafThermoI.H at line 117
    attempt to use janafThermo<EquationOfState> out of temperature range 298.15 -> 20000;  T = 278.803
--> FOAM Warning : 
    From function Foam::scalar Foam::janafThermo<EquationOfState>::limit(Foam::scalar) const [with EquationOfState = Foam::perfectGas<Foam::specie>; Foam::scalar = double]
    in file /home/student/OpenFOAM/student-13/run/OpenFOAM-13/src/thermophysicalModels/specie/lnInclude/janafThermoI.H at line 117
    attempt to use janafThermo<EquationOfState> out of temperature range 298.15 -> 20000;  T = 278.746
--> FOAM Warning : 
    From function Foam::scalar Foam::janafThermo<EquationOfState>::limit(Foam::scalar) const [with EquationOfState = Foam::perfectGas<Foam::specie>; Foam::scalar = double]
    in file /home/student/OpenFOAM/student-13/run/OpenFOAM-13/src/thermophysicalModels/specie/lnInclude/janafThermoI.H at line 117
    attempt to use janafThermo<EquationOfState> out of temperature range 298.15 -> 20000;  T = 278.803
--> FOAM Warning : 
    From function Foam::scalar Foam::janafThermo<EquationOfState>::limit(Foam::scalar) const [with EquationOfState = Foam::perfectGas<Foam::specie>; Foam::scalar = double]
    in file /home/student/OpenFOAM/student-13/run/OpenFOAM-13/src/thermophysicalModels/specie/lnInclude/janafThermoI.H at line 117
    attempt to use janafThermo<EquationOfState> out of temperature range 298.15 -> 20000;  T = 278.746
--> FOAM Warning : 
    From function Foam::scalar Foam::janafThermo<EquationOfState>::limit(Foam::scalar) const [with EquationOfState = Foam::perfectGas<Foam::specie>; Foam::scalar = double]
    in file /home/student/OpenFOAM/student-13/run/OpenFOAM-13/src/thermophysicalModels/specie/lnInclude/janafThermoI.H at line 117
    attempt to use janafThermo<EquationOfState> out of temperature range 298.15 -> 20000;  T = 278.803
--> FOAM Warning : 
    From function Foam::scalar Foam::janafThermo<EquationOfState>::limit(Foam::scalar) const [with EquationOfState = Foam::perfectGas<Foam::specie>; Foam::scalar = double]
    in file /home/student/OpenFOAM/student-13/run/OpenFOAM-13/src/thermophysicalModels/specie/lnInclude/janafThermoI.H at line 117
    attempt to use janafThermo<EquationOfState> out of temperature range 298.15 -> 20000;  T = 278.746
--> FOAM Warning : 
    From function Foam::scalar Foam::janafThermo<EquationOfState>::limit(Foam::scalar) const [with EquationOfState = Foam::perfectGas<Foam::specie>; Foam::scalar = double]
    in file /home/student/OpenFOAM/student-13/run/OpenFOAM-13/src/thermophysicalModels/specie/lnInclude/janafThermoI.H at line 117
    attempt to use janafThermo<EquationOfState> out of temperature range 298.15 -> 20000;  T = 278.803
--> FOAM Warning : 
    From function Foam::scalar Foam::janafThermo<EquationOfState>::limit(Foam::scalar) const [with EquationOfState = Foam::perfectGas<Foam::specie>; Foam::scalar = double]
    in file /home/student/OpenFOAM/student-13/run/OpenFOAM-13/src/thermophysicalModels/specie/lnInclude/janafThermoI.H at line 117
    attempt to use janafThermo<EquationOfState> out of temperature range 298.15 -> 20000;  T = 278.746
--> FOAM Warning : 
    From function Foam::scalar Foam::janafThermo<EquationOfState>::limit(Foam::scalar) const [with EquationOfState = Foam::perfectGas<Foam::specie>; Foam::scalar = double]
    in file /home/student/OpenFOAM/student-13/run/OpenFOAM-13/src/thermophysicalModels/specie/lnInclude/janafThermoI.H at line 117
    attempt to use janafThermo<EquationOfState> out of temperature range 298.15 -> 20000;  T = 278.803
--> FOAM Warning : 
    From function Foam::scalar Foam::janafThermo<EquationOfState>::limit(Foam::scalar) const [with EquationOfState = Foam::perfectGas<Foam::specie>; Foam::scalar = double]
    in file /home/student/OpenFOAM/student-13/run/OpenFOAM-13/src/thermophysicalModels/specie/lnInclude/janafThermoI.H at line 117
    attempt to use janafThermo<EquationOfState> out of temperature range 298.15 -> 20000;  T = 278.746
--> FOAM Warning : 
    From function Foam::scalar Foam::janafThermo<EquationOfState>::limit(Foam::scalar) const [with EquationOfState = Foam::perfectGas<Foam::specie>; Foam::scalar = double]
    in file /home/student/OpenFOAM/student-13/run/OpenFOAM-13/src/thermophysicalModels/specie/lnInclude/janafThermoI.H at line 117
    attempt to use janafThermo<EquationOfState> out of temperature range 298.15 -> 20000;  T = 278.803
--> FOAM Warning : 
    From function Foam::scalar Foam::janafThermo<EquationOfState>::limit(Foam::scalar) const [with EquationOfState = Foam::perfectGas<Foam::specie>; Foam::scalar = double]
    in file /home/student/OpenFOAM/student-13/run/OpenFOAM-13/src/thermophysicalModels/specie/lnInclude/janafThermoI.H at line 117
    attempt to use janafThermo<EquationOfState> out of temperature range 298.15 -> 20000;  T = 278.746
--> FOAM Warning : 
    From function Foam::scalar Foam::janafThermo<EquationOfState>::limit(Foam::scalar) const [with EquationOfState = Foam::perfectGas<Foam::specie>; Foam::scalar = double]
    in file /home/student/OpenFOAM/student-13/run/OpenFOAM-13/src/thermophysicalModels/specie/lnInclude/janafThermoI.H at line 117
    attempt to use janafThermo<EquationOfState> out of temperature range 298.15 -> 20000;  T = 278.803
--> FOAM Warning : 
    From function Foam::scalar Foam::janafThermo<EquationOfState>::limit(Foam::scalar) const [with EquationOfState = Foam::perfectGas<Foam::specie>; Foam::scalar = double]
    in file /home/student/OpenFOAM/student-13/run/OpenFOAM-13/src/thermophysicalModels/specie/lnInclude/janafThermoI.H at line 117
    attempt to use janafThermo<EquationOfState> out of temperature range 298.15 -> 20000;  T = 278.746
--> FOAM Warning : 
    From function Foam::scalar Foam::janafThermo<EquationOfState>::limit(Foam::scalar) const [with EquationOfState = Foam::perfectGas<Foam::specie>; Foam::scalar = double]
    in file /home/student/OpenFOAM/student-13/run/OpenFOAM-13/src/thermophysicalModels/specie/lnInclude/janafThermoI.H at line 117
    attempt to use janafThermo<EquationOfState> out of temperature range 298.15 -> 20000;  T = 278.803
--> FOAM Warning : 
    From function Foam::scalar Foam::janafThermo<EquationOfState>::limit(Foam::scalar) const [with EquationOfState = Foam::perfectGas<Foam::specie>; Foam::scalar = double]
    in file /home/student/OpenFOAM/student-13/run/OpenFOAM-13/src/thermophysicalModels/specie/lnInclude/janafThermoI.H at line 117
    attempt to use janafThermo<EquationOfState> out of temperature range 298.15 -> 20000;  T = 278.746
--> FOAM Warning : 
    From function Foam::scalar Foam::janafThermo<EquationOfState>::limit(Foam::scalar) const [with EquationOfState = Foam::perfectGas<Foam::specie>; Foam::scalar = double]
    in file /home/student/OpenFOAM/student-13/run/OpenFOAM-13/src/thermophysicalModels/specie/lnInclude/janafThermoI.H at line 117
    attempt to use janafThermo<EquationOfState> out of temperature range 298.15 -> 20000;  T = 278.803
--> FOAM Warning : 
    From function Foam::scalar Foam::janafThermo<EquationOfState>::limit(Foam::scalar) const [with EquationOfState = Foam::perfectGas<Foam::specie>; Foam::scalar = double]
    in file /home/student/OpenFOAM/student-13/run/OpenFOAM-13/src/thermophysicalModels/specie/lnInclude/janafThermoI.H at line 117
    attempt to use janafThermo<EquationOfState> out of temperature range 298.15 -> 20000;  T = 278.746
--> FOAM Warning : 
    From function Foam::scalar Foam::janafThermo<EquationOfState>::limit(Foam::scalar) const [with EquationOfState = Foam::perfectGas<Foam::specie>; Foam::scalar = double]
    in file /home/student/OpenFOAM/student-13/run/OpenFOAM-13/src/thermophysicalModels/specie/lnInclude/janafThermoI.H at line 117
    attempt to use janafThermo<EquationOfState> out of temperature range 298.15 -> 20000;  T = 278.803
--> FOAM Warning : 
    From function Foam::scalar Foam::janafThermo<EquationOfState>::limit(Foam::scalar) const [with EquationOfState = Foam::perfectGas<Foam::specie>; Foam::scalar = double]
    in file /home/student/OpenFOAM/student-13/run/OpenFOAM-13/src/thermophysicalModels/specie/lnInclude/janafThermoI.H at line 117
    attempt to use janafThermo<EquationOfState> out of temperature range 298.15 -> 20000;  T = 278.746
--> FOAM Warning : 
    From function Foam::scalar Foam::janafThermo<EquationOfState>::limit(Foam::scalar) const [with EquationOfState = Foam::perfectGas<Foam::specie>; Foam::scalar = double]
    in file /home/student/OpenFOAM/student-13/run/OpenFOAM-13/src/thermophysicalModels/specie/lnInclude/janafThermoI.H at line 117
    attempt to use janafThermo<EquationOfState> out of temperature range 298.15 -> 20000;  T = 278.803
--> FOAM Warning : 
    From function Foam::scalar Foam::janafThermo<EquationOfState>::limit(Foam::scalar) const [with EquationOfState = Foam::perfectGas<Foam::specie>; Foam::scalar = double]
    in file /home/student/OpenFOAM/student-13/run/OpenFOAM-13/src/thermophysicalModels/specie/lnInclude/janafThermoI.H at line 117
    attempt to use janafThermo<EquationOfState> out of temperature range 298.15 -> 20000;  T = 278.746
--> FOAM Warning : 
    From function Foam::scalar Foam::janafThermo<EquationOfState>::limit(Foam::scalar) const [with EquationOfState = Foam::perfectGas<Foam::specie>; Foam::scalar = double]
    in file /home/student/OpenFOAM/student-13/run/OpenFOAM-13/src/thermophysicalModels/specie/lnInclude/janafThermoI.H at line 117
    attempt to use janafThermo<EquationOfState> out of temperature range 298.15 -> 20000;  T = 278.803
--> FOAM Warning : 
    From function Foam::scalar Foam::janafThermo<EquationOfState>::limit(Foam::scalar) const [with EquationOfState = Foam::perfectGas<Foam::specie>; Foam::scalar = double]
    in file /home/student/OpenFOAM/student-13/run/OpenFOAM-13/src/thermophysicalModels/specie/lnInclude/janafThermoI.H at line 117
    attempt to use janafThermo<EquationOfState> out of temperature range 298.15 -> 20000;  T = 278.746
--> FOAM Warning : 
    From function Foam::scalar Foam::janafThermo<EquationOfState>::limit(Foam::scalar) const [with EquationOfState = Foam::perfectGas<Foam::specie>; Foam::scalar = double]
    in file /home/student/OpenFOAM/student-13/run/OpenFOAM-13/src/thermophysicalModels/specie/lnInclude/janafThermoI.H at line 117
    attempt to use janafThermo<EquationOfState> out of temperature range 298.15 -> 20000;  T = 278.803
--> FOAM Warning : 
    From function Foam::scalar Foam::janafThermo<EquationOfState>::limit(Foam::scalar) const [with EquationOfState = Foam::perfectGas<Foam::specie>; Foam::scalar = double]
    in file /home/student/OpenFOAM/student-13/run/OpenFOAM-13/src/thermophysicalModels/specie/lnInclude/janafThermoI.H at line 117
    attempt to use janafThermo<EquationOfState> out of temperature range 298.15 -> 20000;  T = 278.746
--> FOAM Warning : 
    From function Foam::scalar Foam::janafThermo<EquationOfState>::limit(Foam::scalar) const [with EquationOfState = Foam::perfectGas<Foam::specie>; Foam::scalar = double]
    in file /home/student/OpenFOAM/student-13/run/OpenFOAM-13/src/thermophysicalModels/specie/lnInclude/janafThermoI.H at line 117
    attempt to use janafThermo<EquationOfState> out of temperature range 298.15 -> 20000;  T = 278.803
--> FOAM Warning : 
    From function Foam::scalar Foam::janafThermo<EquationOfState>::limit(Foam::scalar) const [with EquationOfState = Foam::perfectGas<Foam::specie>; Foam::scalar = double]
    in file /home/student/OpenFOAM/student-13/run/OpenFOAM-13/src/thermophysicalModels/specie/lnInclude/janafThermoI.H at line 117
    attempt to use janafThermo<EquationOfState> out of temperature range 298.15 -> 20000;  T = 278.746
--> FOAM Warning : 
    From function Foam::scalar Foam::janafThermo<EquationOfState>::limit(Foam::scalar) const [with EquationOfState = Foam::perfectGas<Foam::specie>; Foam::scalar = double]
    in file /home/student/OpenFOAM/student-13/run/OpenFOAM-13/src/thermophysicalModels/specie/lnInclude/janafThermoI.H at line 117
    attempt to use janafThermo<EquationOfState> out of temperature range 298.15 -> 20000;  T = 278.803
--> FOAM Warning : 
    From function Foam::scalar Foam::janafThermo<EquationOfState>::limit(Foam::scalar) const [with EquationOfState = Foam::perfectGas<Foam::specie>; Foam::scalar = double]
    in file /home/student/OpenFOAM/student-13/run/OpenFOAM-13/src/thermophysicalModels/specie/lnInclude/janafThermoI.H at line 117
    attempt to use janafThermo<EquationOfState> out of temperature range 298.15 -> 20000;  T = 278.746
--> FOAM Warning : 
    From function Foam::scalar Foam::janafThermo<EquationOfState>::limit(Foam::scalar) const [with EquationOfState = Foam::perfectGas<Foam::specie>; Foam::scalar = double]
    in file /home/student/OpenFOAM/student-13/run/OpenFOAM-13/src/thermophysicalModels/specie/lnInclude/janafThermoI.H at line 117
    attempt to use janafThermo<EquationOfState> out of temperature range 298.15 -> 20000;  T = 278.803
--> FOAM Warning : 
    From function Foam::scalar Foam::janafThermo<EquationOfState>::limit(Foam::scalar) const [with EquationOfState = Foam::perfectGas<Foam::specie>; Foam::scalar = double]
    in file /home/student/OpenFOAM/student-13/run/OpenFOAM-13/src/thermophysicalModels/specie/lnInclude/janafThermoI.H at line 117
    attempt to use janafThermo<EquationOfState> out of temperature range 298.15 -> 20000;  T = 278.746
--> FOAM Warning : 
    From function Foam::scalar Foam::janafThermo<EquationOfState>::limit(Foam::scalar) const [with EquationOfState = Foam::perfectGas<Foam::specie>; Foam::scalar = double]
    in file /home/student/OpenFOAM/student-13/run/OpenFOAM-13/src/thermophysicalModels/specie/lnInclude/janafThermoI.H at line 117
    attempt to use janafThermo<EquationOfState> out of temperature range 298.15 -> 20000;  T = 278.803
--> FOAM Warning : 
    From function Foam::scalar Foam::janafThermo<EquationOfState>::limit(Foam::scalar) const [with EquationOfState = Foam::perfectGas<Foam::specie>; Foam::scalar = double]
    in file /home/student/OpenFOAM/student-13/run/OpenFOAM-13/src/thermophysicalModels/specie/lnInclude/janafThermoI.H at line 117
    attempt to use janafThermo<EquationOfState> out of temperature range 298.15 -> 20000;  T = 278.746
--> FOAM Warning : 
    From function Foam::scalar Foam::janafThermo<EquationOfState>::limit(Foam::scalar) const [with EquationOfState = Foam::perfectGas<Foam::specie>; Foam::scalar = double]
    in file /home/student/OpenFOAM/student-13/run/OpenFOAM-13/src/thermophysicalModels/specie/lnInclude/janafThermoI.H at line 117
    attempt to use janafThermo<EquationOfState> out of temperature range 298.15 -> 20000;  T = 278.803
--> FOAM Warning : 
    From function Foam::scalar Foam::janafThermo<EquationOfState>::limit(Foam::scalar) const [with EquationOfState = Foam::perfectGas<Foam::specie>; Foam::scalar = double]
    in file /home/student/OpenFOAM/student-13/run/OpenFOAM-13/src/thermophysicalModels/specie/lnInclude/janafThermoI.H at line 117
    attempt to use janafThermo<EquationOfState> out of temperature range 298.15 -> 20000;  T = 278.746
--> FOAM Warning : 
    From function Foam::scalar Foam::janafThermo<EquationOfState>::limit(Foam::scalar) const [with EquationOfState = Foam::perfectGas<Foam::specie>; Foam::scalar = double]
    in file /home/student/OpenFOAM/student-13/run/OpenFOAM-13/src/thermophysicalModels/specie/lnInclude/janafThermoI.H at line 117
    attempt to use janafThermo<EquationOfState> out of temperature range 298.15 -> 20000;  T = 278.803
--> FOAM Warning : 
    From function Foam::scalar Foam::janafThermo<EquationOfState>::limit(Foam::scalar) const [with EquationOfState = Foam::perfectGas<Foam::specie>; Foam::scalar = double]
    in file /home/student/OpenFOAM/student-13/run/OpenFOAM-13/src/thermophysicalModels/specie/lnInclude/janafThermoI.H at line 117
    attempt to use janafThermo<EquationOfState> out of temperature range 298.15 -> 20000;  T = 278.746
--> FOAM Warning : 
    From function Foam::scalar Foam::janafThermo<EquationOfState>::limit(Foam::scalar) const [with EquationOfState = Foam::perfectGas<Foam::specie>; Foam::scalar = double]
    in file /home/student/OpenFOAM/student-13/run/OpenFOAM-13/src/thermophysicalModels/specie/lnInclude/janafThermoI.H at line 117
    attempt to use janafThermo<EquationOfState> out of temperature range 298.15 -> 20000;  T = 278.803
--> FOAM Warning : 
    From function Foam::scalar Foam::janafThermo<EquationOfState>::limit(Foam::scalar) const [with EquationOfState = Foam::perfectGas<Foam::specie>; Foam::scalar = double]
    in file /home/student/OpenFOAM/student-13/run/OpenFOAM-13/src/thermophysicalModels/specie/lnInclude/janafThermoI.H at line 117
    attempt to use janafThermo<EquationOfState> out of temperature range 298.15 -> 20000;  T = 278.746
--> FOAM Warning : 
    From function Foam::scalar Foam::janafThermo<EquationOfState>::limit(Foam::scalar) const [with EquationOfState = Foam::perfectGas<Foam::specie>; Foam::scalar = double]
    in file /home/student/OpenFOAM/student-13/run/OpenFOAM-13/src/thermophysicalModels/specie/lnInclude/janafThermoI.H at line 117
    attempt to use janafThermo<EquationOfState> out of temperature range 298.15 -> 20000;  T = 278.803
--> FOAM Warning : 
    From function Foam::scalar Foam::janafThermo<EquationOfState>::limit(Foam::scalar) const [with EquationOfState = Foam::perfectGas<Foam::specie>; Foam::scalar = double]
    in file /home/student/OpenFOAM/student-13/run/OpenFOAM-13/src/thermophysicalModels/specie/lnInclude/janafThermoI.H at line 117
    attempt to use janafThermo<EquationOfState> out of temperature range 298.15 -> 20000;  T = 278.746
--> FOAM Warning : 
    From function Foam::scalar Foam::janafThermo<EquationOfState>::limit(Foam::scalar) const [with EquationOfState = Foam::perfectGas<Foam::specie>; Foam::scalar = double]
    in file /home/student/OpenFOAM/student-13/run/OpenFOAM-13/src/thermophysicalModels/specie/lnInclude/janafThermoI.H at line 117
    attempt to use janafThermo<EquationOfState> out of temperature range 298.15 -> 20000;  T = 278.803
--> FOAM Warning : 
    From function Foam::scalar Foam::janafThermo<EquationOfState>::limit(Foam::scalar) const [with EquationOfState = Foam::perfectGas<Foam::specie>; Foam::scalar = double]
    in file /home/student/OpenFOAM/student-13/run/OpenFOAM-13/src/thermophysicalModels/specie/lnInclude/janafThermoI.H at line 117
    attempt to use janafThermo<EquationOfState> out of temperature range 298.15 -> 20000;  T = 278.746
--> FOAM Warning : 
    From function Foam::scalar Foam::janafThermo<EquationOfState>::limit(Foam::scalar) const [with EquationOfState = Foam::perfectGas<Foam::specie>; Foam::scalar = double]
    in file /home/student/OpenFOAM/student-13/run/OpenFOAM-13/src/thermophysicalModels/specie/lnInclude/janafThermoI.H at line 117
    attempt to use janafThermo<EquationOfState> out of temperature range 298.15 -> 20000;  T = 278.803
--> FOAM Warning : 
    From function Foam::scalar Foam::janafThermo<EquationOfState>::limit(Foam::scalar) const [with EquationOfState = Foam::perfectGas<Foam::specie>; Foam::scalar = double]
    in file /home/student/OpenFOAM/student-13/run/OpenFOAM-13/src/thermophysicalModels/specie/lnInclude/janafThermoI.H at line 117
    attempt to use janafThermo<EquationOfState> out of temperature range 298.15 -> 20000;  T = 278.746
--> FOAM Warning : 
    From function Foam::scalar Foam::janafThermo<EquationOfState>::limit(Foam::scalar) const [with EquationOfState = Foam::perfectGas<Foam::specie>; Foam::scalar = double]
    in file /home/student/OpenFOAM/student-13/run/OpenFOAM-13/src/thermophysicalModels/specie/lnInclude/janafThermoI.H at line 117
    attempt to use janafThermo<EquationOfState> out of temperature range 298.15 -> 20000;  T = 278.803
--> FOAM Warning : 
    From function Foam::scalar Foam::janafThermo<EquationOfState>::limit(Foam::scalar) const [with EquationOfState = Foam::perfectGas<Foam::specie>; Foam::scalar = double]
    in file /home/student/OpenFOAM/student-13/run/OpenFOAM-13/src/thermophysicalModels/specie/lnInclude/janafThermoI.H at line 117
    attempt to use janafThermo<EquationOfState> out of temperature range 298.15 -> 20000;  T = 278.746
--> FOAM Warning : 
    From function Foam::scalar Foam::janafThermo<EquationOfState>::limit(Foam::scalar) const [with EquationOfState = Foam::perfectGas<Foam::specie>; Foam::scalar = double]
    in file /home/student/OpenFOAM/student-13/run/OpenFOAM-13/src/thermophysicalModels/specie/lnInclude/janafThermoI.H at line 117
    attempt to use janafThermo<EquationOfState> out of temperature range 298.15 -> 20000;  T = 278.803
--> FOAM Warning : 
    From function Foam::scalar Foam::janafThermo<EquationOfState>::limit(Foam::scalar) const [with EquationOfState = Foam::perfectGas<Foam::specie>; Foam::scalar = double]
    in file /home/student/OpenFOAM/student-13/run/OpenFOAM-13/src/thermophysicalModels/specie/lnInclude/janafThermoI.H at line 117
    attempt to use janafThermo<EquationOfState> out of temperature range 298.15 -> 20000;  T = 278.746
--> FOAM Warning : 
    From function Foam::scalar Foam::janafThermo<EquationOfState>::limit(Foam::scalar) const [with EquationOfState = Foam::perfectGas<Foam::specie>; Foam::scalar = double]
    in file /home/student/OpenFOAM/student-13/run/OpenFOAM-13/src/thermophysicalModels/specie/lnInclude/janafThermoI.H at line 117
    attempt to use janafThermo<EquationOfState> out of temperature range 298.15 -> 20000;  T = 278.803
--> FOAM Warning : 
    From function Foam::scalar Foam::janafThermo<EquationOfState>::limit(Foam::scalar) const [with EquationOfState = Foam::perfectGas<Foam::specie>; Foam::scalar = double]
    in file /home/student/OpenFOAM/student-13/run/OpenFOAM-13/src/thermophysicalModels/specie/lnInclude/janafThermoI.H at line 117
    attempt to use janafThermo<EquationOfState> out of temperature range 298.15 -> 20000;  T = 278.746
--> FOAM Warning : 
    From function Foam::scalar Foam::janafThermo<EquationOfState>::limit(Foam::scalar) const [with EquationOfState = Foam::perfectGas<Foam::specie>; Foam::scalar = double]
    in file /home/student/OpenFOAM/student-13/run/OpenFOAM-13/src/thermophysicalModels/specie/lnInclude/janafThermoI.H at line 117
    attempt to use janafThermo<EquationOfState> out of temperature range 298.15 -> 20000;  T = 278.803
--> FOAM Warning : 
    From function Foam::scalar Foam::janafThermo<EquationOfState>::limit(Foam::scalar) const [with EquationOfState = Foam::perfectGas<Foam::specie>; Foam::scalar = double]
    in file /home/student/OpenFOAM/student-13/run/OpenFOAM-13/src/thermophysicalModels/specie/lnInclude/janafThermoI.H at line 117
    attempt to use janafThermo<EquationOfState> out of temperature range 298.15 -> 20000;  T = 278.746
--> FOAM Warning : 
    From function Foam::scalar Foam::janafThermo<EquationOfState>::limit(Foam::scalar) const [with EquationOfState = Foam::perfectGas<Foam::specie>; Foam::scalar = double]
    in file /home/student/OpenFOAM/student-13/run/OpenFOAM-13/src/thermophysicalModels/specie/lnInclude/janafThermoI.H at line 117
    attempt to use janafThermo<EquationOfState> out of temperature range 298.15 -> 20000;  T = 278.803
--> FOAM Warning : 
    From function Foam::scalar Foam::janafThermo<EquationOfState>::limit(Foam::scalar) const [with EquationOfState = Foam::perfectGas<Foam::specie>; Foam::scalar = double]
    in file /home/student/OpenFOAM/student-13/run/OpenFOAM-13/src/thermophysicalModels/specie/lnInclude/janafThermoI.H at line 117
    attempt to use janafThermo<EquationOfState> out of temperature range 298.15 -> 20000;  T = 278.746
--> FOAM Warning : 
    From function Foam::scalar Foam::janafThermo<EquationOfState>::limit(Foam::scalar) const [with EquationOfState = Foam::perfectGas<Foam::specie>; Foam::scalar = double]
    in file /home/student/OpenFOAM/student-13/run/OpenFOAM-13/src/thermophysicalModels/specie/lnInclude/janafThermoI.H at line 117
    attempt to use janafThermo<EquationOfState> out of temperature range 298.15 -> 20000;  T = 278.803
--> FOAM Warning : 
    From function Foam::scalar Foam::janafThermo<EquationOfState>::limit(Foam::scalar) const [with EquationOfState = Foam::perfectGas<Foam::specie>; Foam::scalar = double]
    in file /home/student/OpenFOAM/student-13/run/OpenFOAM-13/src/thermophysicalModels/specie/lnInclude/janafThermoI.H at line 117
    attempt to use janafThermo<EquationOfState> out of temperature range 298.15 -> 20000;  T = 278.746
--> FOAM Warning : 
    From function Foam::scalar Foam::janafThermo<EquationOfState>::limit(Foam::scalar) const [with EquationOfState = Foam::perfectGas<Foam::specie>; Foam::scalar = double]
    in file /home/student/OpenFOAM/student-13/run/OpenFOAM-13/src/thermophysicalModels/specie/lnInclude/janafThermoI.H at line 117
    attempt to use janafThermo<EquationOfState> out of temperature range 298.15 -> 20000;  T = 278.803
--> FOAM Warning : 
    From function Foam::scalar Foam::janafThermo<EquationOfState>::limit(Foam::scalar) const [with EquationOfState = Foam::perfectGas<Foam::specie>; Foam::scalar = double]
    in file /home/student/OpenFOAM/student-13/run/OpenFOAM-13/src/thermophysicalModels/specie/lnInclude/janafThermoI.H at line 117
    attempt to use janafThermo<EquationOfState> out of temperature range 298.15 -> 20000;  T = 278.746
--> FOAM Warning : 
    From function Foam::scalar Foam::janafThermo<EquationOfState>::limit(Foam::scalar) const [with EquationOfState = Foam::perfectGas<Foam::specie>; Foam::scalar = double]
    in file /home/student/OpenFOAM/student-13/run/OpenFOAM-13/src/thermophysicalModels/specie/lnInclude/janafThermoI.H at line 117
    attempt to use janafThermo<EquationOfState> out of temperature range 298.15 -> 20000;  T = 278.803
--> FOAM Warning : 
    From function Foam::scalar Foam::janafThermo<EquationOfState>::limit(Foam::scalar) const [with EquationOfState = Foam::perfectGas<Foam::specie>; Foam::scalar = double]
    in file /home/student/OpenFOAM/student-13/run/OpenFOAM-13/src/thermophysicalModels/specie/lnInclude/janafThermoI.H at line 117
    attempt to use janafThermo<EquationOfState> out of temperature range 298.15 -> 20000;  T = 278.746
--> FOAM Warning : 
    From function Foam::scalar Foam::janafThermo<EquationOfState>::limit(Foam::scalar) const [with EquationOfState = Foam::perfectGas<Foam::specie>; Foam::scalar = double]
    in file /home/student/OpenFOAM/student-13/run/OpenFOAM-13/src/thermophysicalModels/specie/lnInclude/janafThermoI.H at line 117
    attempt to use janafThermo<EquationOfState> out of temperature range 298.15 -> 20000;  T = 278.803
--> FOAM Warning : 
    From function Foam::scalar Foam::janafThermo<EquationOfState>::limit(Foam::scalar) const [with EquationOfState = Foam::perfectGas<Foam::specie>; Foam::scalar = double]
    in file /home/student/OpenFOAM/student-13/run/OpenFOAM-13/src/thermophysicalModels/specie/lnInclude/janafThermoI.H at line 117
    attempt to use janafThermo<EquationOfState> out of temperature range 298.15 -> 20000;  T = 278.746
--> FOAM Warning : 
    From function Foam::scalar Foam::janafThermo<EquationOfState>::limit(Foam::scalar) const [with EquationOfState = Foam::perfectGas<Foam::specie>; Foam::scalar = double]
    in file /home/student/OpenFOAM/student-13/run/OpenFOAM-13/src/thermophysicalModels/specie/lnInclude/janafThermoI.H at line 117
    attempt to use janafThermo<EquationOfState> out of temperature range 298.15 -> 20000;  T = 278.803
--> FOAM Warning : 
    From function Foam::scalar Foam::janafThermo<EquationOfState>::limit(Foam::scalar) const [with EquationOfState = Foam::perfectGas<Foam::specie>; Foam::scalar = double]
    in file /home/student/OpenFOAM/student-13/run/OpenFOAM-13/src/thermophysicalModels/specie/lnInclude/janafThermoI.H at line 117
    attempt to use janafThermo<EquationOfState> out of temperature range 298.15 -> 20000;  T = 278.746
--> FOAM Warning : 
    From function Foam::scalar Foam::janafThermo<EquationOfState>::limit(Foam::scalar) const [with EquationOfState = Foam::perfectGas<Foam::specie>; Foam::scalar = double]
    in file /home/student/OpenFOAM/student-13/run/OpenFOAM-13/src/thermophysicalModels/specie/lnInclude/janafThermoI.H at line 117
    attempt to use janafThermo<EquationOfState> out of temperature range 298.15 -> 20000;  T = 278.803
--> FOAM Warning : 
    From function Foam::scalar Foam::janafThermo<EquationOfState>::limit(Foam::scalar) const [with EquationOfState = Foam::perfectGas<Foam::specie>; Foam::scalar = double]
    in file /home/student/OpenFOAM/student-13/run/OpenFOAM-13/src/thermophysicalModels/specie/lnInclude/janafThermoI.H at line 117
    attempt to use janafThermo<EquationOfState> out of temperature range 298.15 -> 20000;  T = 278.746
--> FOAM Warning : 
    From function Foam::scalar Foam::janafThermo<EquationOfState>::limit(Foam::scalar) const [with EquationOfState = Foam::perfectGas<Foam::specie>; Foam::scalar = double]
    in file /home/student/OpenFOAM/student-13/run/OpenFOAM-13/src/thermophysicalModels/specie/lnInclude/janafThermoI.H at line 117
    attempt to use janafThermo<EquationOfState> out of temperature range 298.15 -> 20000;  T = 278.803
--> FOAM Warning : 
    From function Foam::scalar Foam::janafThermo<EquationOfState>::limit(Foam::scalar) const [with EquationOfState = Foam::perfectGas<Foam::specie>; Foam::scalar = double]
    in file /home/student/OpenFOAM/student-13/run/OpenFOAM-13/src/thermophysicalModels/specie/lnInclude/janafThermoI.H at line 117
    attempt to use janafThermo<EquationOfState> out of temperature range 298.15 -> 20000;  T = 278.746
--> FOAM Warning : 
    From function Foam::scalar Foam::janafThermo<EquationOfState>::limit(Foam::scalar) const [with EquationOfState = Foam::perfectGas<Foam::specie>; Foam::scalar = double]
    in file /home/student/OpenFOAM/student-13/run/OpenFOAM-13/src/thermophysicalModels/specie/lnInclude/janafThermoI.H at line 117
    attempt to use janafThermo<EquationOfState> out of temperature range 298.15 -> 20000;  T = 278.803
--> FOAM Warning : 
    From function Foam::scalar Foam::janafThermo<EquationOfState>::limit(Foam::scalar) const [with EquationOfState = Foam::perfectGas<Foam::specie>; Foam::scalar = double]
    in file /home/student/OpenFOAM/student-13/run/OpenFOAM-13/src/thermophysicalModels/specie/lnInclude/janafThermoI.H at line 117
    attempt to use janafThermo<EquationOfState> out of temperature range 298.15 -> 20000;  T = 278.746
--> FOAM Warning : 
    From function Foam::scalar Foam::janafThermo<EquationOfState>::limit(Foam::scalar) const [with EquationOfState = Foam::perfectGas<Foam::specie>; Foam::scalar = double]
    in file /home/student/OpenFOAM/student-13/run/OpenFOAM-13/src/thermophysicalModels/specie/lnInclude/janafThermoI.H at line 117
    attempt to use janafThermo<EquationOfState> out of temperature range 298.15 -> 20000;  T = 278.803
--> FOAM Warning : 
    From function Foam::scalar Foam::janafThermo<EquationOfState>::limit(Foam::scalar) const [with EquationOfState = Foam::perfectGas<Foam::specie>; Foam::scalar = double]
    in file /home/student/OpenFOAM/student-13/run/OpenFOAM-13/src/thermophysicalModels/specie/lnInclude/janafThermoI.H at line 117
    attempt to use janafThermo<EquationOfState> out of temperature range 298.15 -> 20000;  T = 278.746
--> FOAM Warning : 
    From function Foam::scalar Foam::janafThermo<EquationOfState>::limit(Foam::scalar) const [with EquationOfState = Foam::perfectGas<Foam::specie>; Foam::scalar = double]
    in file /home/student/OpenFOAM/student-13/run/OpenFOAM-13/src/thermophysicalModels/specie/lnInclude/janafThermoI.H at line 117
    attempt to use janafThermo<EquationOfState> out of temperature range 298.15 -> 20000;  T = 278.803
--> FOAM Warning : 
    From function Foam::scalar Foam::janafThermo<EquationOfState>::limit(Foam::scalar) const [with EquationOfState = Foam::perfectGas<Foam::specie>; Foam::scalar = double]
    in file /home/student/OpenFOAM/student-13/run/OpenFOAM-13/src/thermophysicalModels/specie/lnInclude/janafThermoI.H at line 117
    attempt to use janafThermo<EquationOfState> out of temperature range 298.15 -> 20000;  T = 278.746
--> FOAM Warning : 
    From function Foam::scalar Foam::janafThermo<EquationOfState>::limit(Foam::scalar) const [with EquationOfState = Foam::perfectGas<Foam::specie>; Foam::scalar = double]
    in file /home/student/OpenFOAM/student-13/run/OpenFOAM-13/src/thermophysicalModels/specie/lnInclude/janafThermoI.H at line 117
    attempt to use janafThermo<EquationOfState> out of temperature range 298.15 -> 20000;  T = 278.803
--> FOAM Warning : 
    From function Foam::scalar Foam::janafThermo<EquationOfState>::limit(Foam::scalar) const [with EquationOfState = Foam::perfectGas<Foam::specie>; Foam::scalar = double]
    in file /home/student/OpenFOAM/student-13/run/OpenFOAM-13/src/thermophysicalModels/specie/lnInclude/janafThermoI.H at line 117
    attempt to use janafThermo<EquationOfState> out of temperature range 298.15 -> 20000;  T = 278.746
--> FOAM Warning : 
    From function Foam::scalar Foam::janafThermo<EquationOfState>::limit(Foam::scalar) const [with EquationOfState = Foam::perfectGas<Foam::specie>; Foam::scalar = double]
    in file /home/student/OpenFOAM/student-13/run/OpenFOAM-13/src/thermophysicalModels/specie/lnInclude/janafThermoI.H at line 117
    attempt to use janafThermo<EquationOfState> out of temperature range 298.15 -> 20000;  T = 278.803
--> FOAM Warning : 
    From function Foam::scalar Foam::janafThermo<EquationOfState>::limit(Foam::scalar) const [with EquationOfState = Foam::perfectGas<Foam::specie>; Foam::scalar = double]
    in file /home/student/OpenFOAM/student-13/run/OpenFOAM-13/src/thermophysicalModels/specie/lnInclude/janafThermoI.H at line 117
    attempt to use janafThermo<EquationOfState> out of temperature range 298.15 -> 20000;  T = 278.746
--> FOAM Warning : 
    From function Foam::scalar Foam::janafThermo<EquationOfState>::limit(Foam::scalar) const [with EquationOfState = Foam::perfectGas<Foam::specie>; Foam::scalar = double]
    in file /home/student/OpenFOAM/student-13/run/OpenFOAM-13/src/thermophysicalModels/specie/lnInclude/janafThermoI.H at line 117
    attempt to use janafThermo<EquationOfState> out of temperature range 298.15 -> 20000;  T = 278.803
--> FOAM Warning : 
    From function Foam::scalar Foam::janafThermo<EquationOfState>::limit(Foam::scalar) const [with EquationOfState = Foam::perfectGas<Foam::specie>; Foam::scalar = double]
    in file /home/student/OpenFOAM/student-13/run/OpenFOAM-13/src/thermophysicalModels/specie/lnInclude/janafThermoI.H at line 117
    attempt to use janafThermo<EquationOfState> out of temperature range 298.15 -> 20000;  T = 278.746
--> FOAM Warning : 
    From function Foam::scalar Foam::janafThermo<EquationOfState>::limit(Foam::scalar) const [with EquationOfState = Foam::perfectGas<Foam::specie>; Foam::scalar = double]
    in file /home/student/OpenFOAM/student-13/run/OpenFOAM-13/src/thermophysicalModels/specie/lnInclude/janafThermoI.H at line 117
    attempt to use janafThermo<EquationOfState> out of temperature range 298.15 -> 20000;  T = 278.803
--> FOAM Warning : 
    From function Foam::scalar Foam::janafThermo<EquationOfState>::limit(Foam::scalar) const [with EquationOfState = Foam::perfectGas<Foam::specie>; Foam::scalar = double]
    in file /home/student/OpenFOAM/student-13/run/OpenFOAM-13/src/thermophysicalModels/specie/lnInclude/janafThermoI.H at line 117
    attempt to use janafThermo<EquationOfState> out of temperature range 298.15 -> 20000;  T = 278.746
--> FOAM Warning : 
    From function Foam::scalar Foam::janafThermo<EquationOfState>::limit(Foam::scalar) const [with EquationOfState = Foam::perfectGas<Foam::specie>; Foam::scalar = double]
    in file /home/student/OpenFOAM/student-13/run/OpenFOAM-13/src/thermophysicalModels/specie/lnInclude/janafThermoI.H at line 117
    attempt to use janafThermo<EquationOfState> out of temperature range 298.15 -> 20000;  T = 278.803
--> FOAM Warning : 
    From function Foam::scalar Foam::janafThermo<EquationOfState>::limit(Foam::scalar) const [with EquationOfState = Foam::perfectGas<Foam::specie>; Foam::scalar = double]
    in file /home/student/OpenFOAM/student-13/run/OpenFOAM-13/src/thermophysicalModels/specie/lnInclude/janafThermoI.H at line 117
    attempt to use janafThermo<EquationOfState> out of temperature range 298.15 -> 20000;  T = 278.746
--> FOAM Warning : 
    From function Foam::scalar Foam::janafThermo<EquationOfState>::limit(Foam::scalar) const [with EquationOfState = Foam::perfectGas<Foam::specie>; Foam::scalar = double]
    in file /home/student/OpenFOAM/student-13/run/OpenFOAM-13/src/thermophysicalModels/specie/lnInclude/janafThermoI.H at line 117
    attempt to use janafThermo<EquationOfState> out of temperature range 298.15 -> 20000;  T = 278.803
--> FOAM Warning : 
    From function Foam::scalar Foam::janafThermo<EquationOfState>::limit(Foam::scalar) const [with EquationOfState = Foam::perfectGas<Foam::specie>; Foam::scalar = double]
    in file /home/student/OpenFOAM/student-13/run/OpenFOAM-13/src/thermophysicalModels/specie/lnInclude/janafThermoI.H at line 117
    attempt to use janafThermo<EquationOfState> out of temperature range 298.15 -> 20000;  T = 278.746
--> FOAM Warning : 
    From function Foam::scalar Foam::janafThermo<EquationOfState>::limit(Foam::scalar) const [with EquationOfState = Foam::perfectGas<Foam::specie>; Foam::scalar = double]
    in file /home/student/OpenFOAM/student-13/run/OpenFOAM-13/src/thermophysicalModels/specie/lnInclude/janafThermoI.H at line 117
    attempt to use janafThermo<EquationOfState> out of temperature range 298.15 -> 20000;  T = 278.803
--> FOAM Warning : 
    From function Foam::scalar Foam::janafThermo<EquationOfState>::limit(Foam::scalar) const [with EquationOfState = Foam::perfectGas<Foam::specie>; Foam::scalar = double]
    in file /home/student/OpenFOAM/student-13/run/OpenFOAM-13/src/thermophysicalModels/specie/lnInclude/janafThermoI.H at line 117
    attempt to use janafThermo<EquationOfState> out of temperature range 298.15 -> 20000;  T = 278.746
--> FOAM Warning : 
    From function Foam::scalar Foam::janafThermo<EquationOfState>::limit(Foam::scalar) const [with EquationOfState = Foam::perfectGas<Foam::specie>; Foam::scalar = double]
    in file /home/student/OpenFOAM/student-13/run/OpenFOAM-13/src/thermophysicalModels/specie/lnInclude/janafThermoI.H at line 117
    attempt to use janafThermo<EquationOfState> out of temperature range 298.15 -> 20000;  T = 278.803
--> FOAM Warning : 
    From function Foam::scalar Foam::janafThermo<EquationOfState>::limit(Foam::scalar) const [with EquationOfState = Foam::perfectGas<Foam::specie>; Foam::scalar = double]
    in file /home/student/OpenFOAM/student-13/run/OpenFOAM-13/src/thermophysicalModels/specie/lnInclude/janafThermoI.H at line 117
    attempt to use janafThermo<EquationOfState> out of temperature range 298.15 -> 20000;  T = 278.746
--> FOAM Warning : 
    From function Foam::scalar Foam::janafThermo<EquationOfState>::limit(Foam::scalar) const [with EquationOfState = Foam::perfectGas<Foam::specie>; Foam::scalar = double]
    in file /home/student/OpenFOAM/student-13/run/OpenFOAM-13/src/thermophysicalModels/specie/lnInclude/janafThermoI.H at line 117
    attempt to use janafThermo<EquationOfState> out of temperature range 298.15 -> 20000;  T = 278.803
--> FOAM Warning : 
    From function Foam::scalar Foam::janafThermo<EquationOfState>::limit(Foam::scalar) const [with EquationOfState = Foam::perfectGas<Foam::specie>; Foam::scalar = double]
    in file /home/student/OpenFOAM/student-13/run/OpenFOAM-13/src/thermophysicalModels/specie/lnInclude/janafThermoI.H at line 117
    attempt to use janafThermo<EquationOfState> out of temperature range 298.15 -> 20000;  T = 278.746
--> FOAM Warning : 
    From function Foam::scalar Foam::janafThermo<EquationOfState>::limit(Foam::scalar) const [with EquationOfState = Foam::perfectGas<Foam::specie>; Foam::scalar = double]
    in file /home/student/OpenFOAM/student-13/run/OpenFOAM-13/src/thermophysicalModels/specie/lnInclude/janafThermoI.H at line 117
    attempt to use janafThermo<EquationOfState> out of temperature range 298.15 -> 20000;  T = 278.803
--> FOAM Warning : 
    From function Foam::scalar Foam::janafThermo<EquationOfState>::limit(Foam::scalar) const [with EquationOfState = Foam::perfectGas<Foam::specie>; Foam::scalar = double]
    in file /home/student/OpenFOAM/student-13/run/OpenFOAM-13/src/thermophysicalModels/specie/lnInclude/janafThermoI.H at line 117
    attempt to use janafThermo<EquationOfState> out of temperature range 298.15 -> 20000;  T = 278.746
--> FOAM Warning : 
    From function Foam::scalar Foam::janafThermo<EquationOfState>::limit(Foam::scalar) const [with EquationOfState = Foam::perfectGas<Foam::specie>; Foam::scalar = double]
    in file /home/student/OpenFOAM/student-13/run/OpenFOAM-13/src/thermophysicalModels/specie/lnInclude/janafThermoI.H at line 117
    attempt to use janafThermo<EquationOfState> out of temperature range 298.15 -> 20000;  T = 278.803
--> FOAM Warning : 
    From function Foam::scalar Foam::janafThermo<EquationOfState>::limit(Foam::scalar) const [with EquationOfState = Foam::perfectGas<Foam::specie>; Foam::scalar = double]
    in file /home/student/OpenFOAM/student-13/run/OpenFOAM-13/src/thermophysicalModels/specie/lnInclude/janafThermoI.H at line 117
    attempt to use janafThermo<EquationOfState> out of temperature range 298.15 -> 20000;  T = 278.746
--> FOAM Warning : 
    From function Foam::scalar Foam::janafThermo<EquationOfState>::limit(Foam::scalar) const [with EquationOfState = Foam::perfectGas<Foam::specie>; Foam::scalar = double]
    in file /home/student/OpenFOAM/student-13/run/OpenFOAM-13/src/thermophysicalModels/specie/lnInclude/janafThermoI.H at line 117
    attempt to use janafThermo<EquationOfState> out of temperature range 298.15 -> 20000;  T = 278.803
--> FOAM Warning : 
    From function Foam::scalar Foam::janafThermo<EquationOfState>::limit(Foam::scalar) const [with EquationOfState = Foam::perfectGas<Foam::specie>; Foam::scalar = double]
    in file /home/student/OpenFOAM/student-13/run/OpenFOAM-13/src/thermophysicalModels/specie/lnInclude/janafThermoI.H at line 117
    attempt to use janafThermo<EquationOfState> out of temperature range 298.15 -> 20000;  T = 278.746
--> FOAM Warning : 
    From function Foam::scalar Foam::janafThermo<EquationOfState>::limit(Foam::scalar) const [with EquationOfState = Foam::perfectGas<Foam::specie>; Foam::scalar = double]
    in file /home/student/OpenFOAM/student-13/run/OpenFOAM-13/src/thermophysicalModels/specie/lnInclude/janafThermoI.H at line 117
    attempt to use janafThermo<EquationOfState> out of temperature range 298.15 -> 20000;  T = 278.803
--> FOAM Warning : 
    From function Foam::scalar Foam::janafThermo<EquationOfState>::limit(Foam::scalar) const [with EquationOfState = Foam::perfectGas<Foam::specie>; Foam::scalar = double]
    in file /home/student/OpenFOAM/student-13/run/OpenFOAM-13/src/thermophysicalModels/specie/lnInclude/janafThermoI.H at line 117
    attempt to use janafThermo<EquationOfState> out of temperature range 298.15 -> 20000;  T = 278.746
--> FOAM Warning : 
    From function Foam::scalar Foam::janafThermo<EquationOfState>::limit(Foam::scalar) const [with EquationOfState = Foam::perfectGas<Foam::specie>; Foam::scalar = double]
    in file /home/student/OpenFOAM/student-13/run/OpenFOAM-13/src/thermophysicalModels/specie/lnInclude/janafThermoI.H at line 117
    attempt to use janafThermo<EquationOfState> out of temperature range 298.15 -> 20000;  T = 278.803
--> FOAM Warning : 
    From function Foam::scalar Foam::janafThermo<EquationOfState>::limit(Foam::scalar) const [with EquationOfState = Foam::perfectGas<Foam::specie>; Foam::scalar = double]
    in file /home/student/OpenFOAM/student-13/run/OpenFOAM-13/src/thermophysicalModels/specie/lnInclude/janafThermoI.H at line 117
    attempt to use janafThermo<EquationOfState> out of temperature range 298.15 -> 20000;  T = 278.746
--> FOAM Warning : 
    From function Foam::scalar Foam::janafThermo<EquationOfState>::limit(Foam::scalar) const [with EquationOfState = Foam::perfectGas<Foam::specie>; Foam::scalar = double]
    in file /home/student/OpenFOAM/student-13/run/OpenFOAM-13/src/thermophysicalModels/specie/lnInclude/janafThermoI.H at line 117
    attempt to use janafThermo<EquationOfState> out of temperature range 298.15 -> 20000;  T = 278.803
--> FOAM Warning : 
    From function Foam::scalar Foam::janafThermo<EquationOfState>::limit(Foam::scalar) const [with EquationOfState = Foam::perfectGas<Foam::specie>; Foam::scalar = double]
    in file /home/student/OpenFOAM/student-13/run/OpenFOAM-13/src/thermophysicalModels/specie/lnInclude/janafThermoI.H at line 117
    attempt to use janafThermo<EquationOfState> out of temperature range 298.15 -> 20000;  T = 278.746
--> FOAM Warning : 
    From function Foam::scalar Foam::janafThermo<EquationOfState>::limit(Foam::scalar) const [with EquationOfState = Foam::perfectGas<Foam::specie>; Foam::scalar = double]
    in file /home/student/OpenFOAM/student-13/run/OpenFOAM-13/src/thermophysicalModels/specie/lnInclude/janafThermoI.H at line 117
    attempt to use janafThermo<EquationOfState> out of temperature range 298.15 -> 20000;  T = 278.803
--> FOAM Warning : 
    From function Foam::scalar Foam::janafThermo<EquationOfState>::limit(Foam::scalar) const [with EquationOfState = Foam::perfectGas<Foam::specie>; Foam::scalar = double]
    in file /home/student/OpenFOAM/student-13/run/OpenFOAM-13/src/thermophysicalModels/specie/lnInclude/janafThermoI.H at line 117
    attempt to use janafThermo<EquationOfState> out of temperature range 298.15 -> 20000;  T = 278.746
--> FOAM Warning : 
    From function Foam::scalar Foam::janafThermo<EquationOfState>::limit(Foam::scalar) const [with EquationOfState = Foam::perfectGas<Foam::specie>; Foam::scalar = double]
    in file /home/student/OpenFOAM/student-13/run/OpenFOAM-13/src/thermophysicalModels/specie/lnInclude/janafThermoI.H at line 117
    attempt to use janafThermo<EquationOfState> out of temperature range 298.15 -> 20000;  T = 278.803
--> FOAM Warning : 
    From function Foam::scalar Foam::janafThermo<EquationOfState>::limit(Foam::scalar) const [with EquationOfState = Foam::perfectGas<Foam::specie>; Foam::scalar = double]
    in file /home/student/OpenFOAM/student-13/run/OpenFOAM-13/src/thermophysicalModels/specie/lnInclude/janafThermoI.H at line 117
    attempt to use janafThermo<EquationOfState> out of temperature range 298.15 -> 20000;  T = 278.746
--> FOAM Warning : 
    From function Foam::scalar Foam::janafThermo<EquationOfState>::limit(Foam::scalar) const [with EquationOfState = Foam::perfectGas<Foam::specie>; Foam::scalar = double]
    in file /home/student/OpenFOAM/student-13/run/OpenFOAM-13/src/thermophysicalModels/specie/lnInclude/janafThermoI.H at line 117
    attempt to use janafThermo<EquationOfState> out of temperature range 298.15 -> 20000;  T = 278.803
--> FOAM Warning : 
    From function Foam::scalar Foam::janafThermo<EquationOfState>::limit(Foam::scalar) const [with EquationOfState = Foam::perfectGas<Foam::specie>; Foam::scalar = double]
    in file /home/student/OpenFOAM/student-13/run/OpenFOAM-13/src/thermophysicalModels/specie/lnInclude/janafThermoI.H at line 117
    attempt to use janafThermo<EquationOfState> out of temperature range 298.15 -> 20000;  T = 278.746
--> FOAM Warning : 
    From function Foam::scalar Foam::janafThermo<EquationOfState>::limit(Foam::scalar) const [with EquationOfState = Foam::perfectGas<Foam::specie>; Foam::scalar = double]
    in file /home/student/OpenFOAM/student-13/run/OpenFOAM-13/src/thermophysicalModels/specie/lnInclude/janafThermoI.H at line 117
    attempt to use janafThermo<EquationOfState> out of temperature range 298.15 -> 20000;  T = 278.803
--> FOAM Warning : 
    From function Foam::scalar Foam::janafThermo<EquationOfState>::limit(Foam::scalar) const [with EquationOfState = Foam::perfectGas<Foam::specie>; Foam::scalar = double]
    in file /home/student/OpenFOAM/student-13/run/OpenFOAM-13/src/thermophysicalModels/specie/lnInclude/janafThermoI.H at line 117
    attempt to use janafThermo<EquationOfState> out of temperature range 298.15 -> 20000;  T = 278.746
--> FOAM Warning : 
    From function Foam::scalar Foam::janafThermo<EquationOfState>::limit(Foam::scalar) const [with EquationOfState = Foam::perfectGas<Foam::specie>; Foam::scalar = double]
    in file /home/student/OpenFOAM/student-13/run/OpenFOAM-13/src/thermophysicalModels/specie/lnInclude/janafThermoI.H at line 117
    attempt to use janafThermo<EquationOfState> out of temperature range 298.15 -> 20000;  T = 278.803
--> FOAM Warning : 
    From function Foam::scalar Foam::janafThermo<EquationOfState>::limit(Foam::scalar) const [with EquationOfState = Foam::perfectGas<Foam::specie>; Foam::scalar = double]
    in file /home/student/OpenFOAM/student-13/run/OpenFOAM-13/src/thermophysicalModels/specie/lnInclude/janafThermoI.H at line 117
    attempt to use janafThermo<EquationOfState> out of temperature range 298.15 -> 20000;  T = 278.746
--> FOAM Warning : 
    From function Foam::scalar Foam::janafThermo<EquationOfState>::limit(Foam::scalar) const [with EquationOfState = Foam::perfectGas<Foam::specie>; Foam::scalar = double]
    in file /home/student/OpenFOAM/student-13/run/OpenFOAM-13/src/thermophysicalModels/specie/lnInclude/janafThermoI.H at line 117
    attempt to use janafThermo<EquationOfState> out of temperature range 298.15 -> 20000;  T = 278.803
--> FOAM Warning : 
    From function Foam::scalar Foam::janafThermo<EquationOfState>::limit(Foam::scalar) const [with EquationOfState = Foam::perfectGas<Foam::specie>; Foam::scalar = double]
    in file /home/student/OpenFOAM/student-13/run/OpenFOAM-13/src/thermophysicalModels/specie/lnInclude/janafThermoI.H at line 117
    attempt to use janafThermo<EquationOfState> out of temperature range 298.15 -> 20000;  T = 278.746
--> FOAM Warning : 
    From function Foam::scalar Foam::janafThermo<EquationOfState>::limit(Foam::scalar) const [with EquationOfState = Foam::perfectGas<Foam::specie>; Foam::scalar = double]
    in file /home/student/OpenFOAM/student-13/run/OpenFOAM-13/src/thermophysicalModels/specie/lnInclude/janafThermoI.H at line 117
    attempt to use janafThermo<EquationOfState> out of temperature range 298.15 -> 20000;  T = 278.803
--> FOAM Warning : 
    From function Foam::scalar Foam::janafThermo<EquationOfState>::limit(Foam::scalar) const [with EquationOfState = Foam::perfectGas<Foam::specie>; Foam::scalar = double]
    in file /home/student/OpenFOAM/student-13/run/OpenFOAM-13/src/thermophysicalModels/specie/lnInclude/janafThermoI.H at line 117
    attempt to use janafThermo<EquationOfState> out of temperature range 298.15 -> 20000;  T = 278.746
--> FOAM Warning : 
    From function Foam::scalar Foam::janafThermo<EquationOfState>::limit(Foam::scalar) const [with EquationOfState = Foam::perfectGas<Foam::specie>; Foam::scalar = double]
    in file /home/student/OpenFOAM/student-13/run/OpenFOAM-13/src/thermophysicalModels/specie/lnInclude/janafThermoI.H at line 117
    attempt to use janafThermo<EquationOfState> out of temperature range 298.15 -> 20000;  T = 278.803
--> FOAM Warning : 
    From function Foam::scalar Foam::janafThermo<EquationOfState>::limit(Foam::scalar) const [with EquationOfState = Foam::perfectGas<Foam::specie>; Foam::scalar = double]
    in file /home/student/OpenFOAM/student-13/run/OpenFOAM-13/src/thermophysicalModels/specie/lnInclude/janafThermoI.H at line 117
    attempt to use janafThermo<EquationOfState> out of temperature range 298.15 -> 20000;  T = 278.746
--> FOAM Warning : 
    From function Foam::scalar Foam::janafThermo<EquationOfState>::limit(Foam::scalar) const [with EquationOfState = Foam::perfectGas<Foam::specie>; Foam::scalar = double]
    in file /home/student/OpenFOAM/student-13/run/OpenFOAM-13/src/thermophysicalModels/specie/lnInclude/janafThermoI.H at line 117
    attempt to use janafThermo<EquationOfState> out of temperature range 298.15 -> 20000;  T = 278.803
--> FOAM Warning : 
    From function Foam::scalar Foam::janafThermo<EquationOfState>::limit(Foam::scalar) const [with EquationOfState = Foam::perfectGas<Foam::specie>; Foam::scalar = double]
    in file /home/student/OpenFOAM/student-13/run/OpenFOAM-13/src/thermophysicalModels/specie/lnInclude/janafThermoI.H at line 117
    attempt to use janafThermo<EquationOfState> out of temperature range 298.15 -> 20000;  T = 278.746
--> FOAM Warning : 
    From function Foam::scalar Foam::janafThermo<EquationOfState>::limit(Foam::scalar) const [with EquationOfState = Foam::perfectGas<Foam::specie>; Foam::scalar = double]
    in file /home/student/OpenFOAM/student-13/run/OpenFOAM-13/src/thermophysicalModels/specie/lnInclude/janafThermoI.H at line 117
    attempt to use janafThermo<EquationOfState> out of temperature range 298.15 -> 20000;  T = 278.803
--> FOAM Warning : 
    From function Foam::scalar Foam::janafThermo<EquationOfState>::limit(Foam::scalar) const [with EquationOfState = Foam::perfectGas<Foam::specie>; Foam::scalar = double]
    in file /home/student/OpenFOAM/student-13/run/OpenFOAM-13/src/thermophysicalModels/specie/lnInclude/janafThermoI.H at line 117
    attempt to use janafThermo<EquationOfState> out of temperature range 298.15 -> 20000;  T = 278.746
--> FOAM Warning : 
    From function Foam::scalar Foam::janafThermo<EquationOfState>::limit(Foam::scalar) const [with EquationOfState = Foam::perfectGas<Foam::specie>; Foam::scalar = double]
    in file /home/student/OpenFOAM/student-13/run/OpenFOAM-13/src/thermophysicalModels/specie/lnInclude/janafThermoI.H at line 117
    attempt to use janafThermo<EquationOfState> out of temperature range 298.15 -> 20000;  T = 278.803
--> FOAM Warning : 
    From function Foam::scalar Foam::janafThermo<EquationOfState>::limit(Foam::scalar) const [with EquationOfState = Foam::perfectGas<Foam::specie>; Foam::scalar = double]
    in file /home/student/OpenFOAM/student-13/run/OpenFOAM-13/src/thermophysicalModels/specie/lnInclude/janafThermoI.H at line 117
    attempt to use janafThermo<EquationOfState> out of temperature range 298.15 -> 20000;  T = 278.746
--> FOAM Warning : 
    From function Foam::scalar Foam::janafThermo<EquationOfState>::limit(Foam::scalar) const [with EquationOfState = Foam::perfectGas<Foam::specie>; Foam::scalar = double]
    in file /home/student/OpenFOAM/student-13/run/OpenFOAM-13/src/thermophysicalModels/specie/lnInclude/janafThermoI.H at line 117
    attempt to use janafThermo<EquationOfState> out of temperature range 298.15 -> 20000;  T = 278.803
--> FOAM Warning : 
    From function Foam::scalar Foam::janafThermo<EquationOfState>::limit(Foam::scalar) const [with EquationOfState = Foam::perfectGas<Foam::specie>; Foam::scalar = double]
    in file /home/student/OpenFOAM/student-13/run/OpenFOAM-13/src/thermophysicalModels/specie/lnInclude/janafThermoI.H at line 117
    attempt to use janafThermo<EquationOfState> out of temperature range 298.15 -> 20000;  T = 278.746
--> FOAM Warning : 
    From function Foam::scalar Foam::janafThermo<EquationOfState>::limit(Foam::scalar) const [with EquationOfState = Foam::perfectGas<Foam::specie>; Foam::scalar = double]
    in file /home/student/OpenFOAM/student-13/run/OpenFOAM-13/src/thermophysicalModels/specie/lnInclude/janafThermoI.H at line 117
    attempt to use janafThermo<EquationOfState> out of temperature range 298.15 -> 20000;  T = 278.803
--> FOAM Warning : 
    From function Foam::scalar Foam::janafThermo<EquationOfState>::limit(Foam::scalar) const [with EquationOfState = Foam::perfectGas<Foam::specie>; Foam::scalar = double]
    in file /home/student/OpenFOAM/student-13/run/OpenFOAM-13/src/thermophysicalModels/specie/lnInclude/janafThermoI.H at line 117
    attempt to use janafThermo<EquationOfState> out of temperature range 298.15 -> 20000;  T = 278.746
--> FOAM Warning : 
    From function Foam::scalar Foam::janafThermo<EquationOfState>::limit(Foam::scalar) const [with EquationOfState = Foam::perfectGas<Foam::specie>; Foam::scalar = double]
    in file /home/student/OpenFOAM/student-13/run/OpenFOAM-13/src/thermophysicalModels/specie/lnInclude/janafThermoI.H at line 117
    attempt to use janafThermo<EquationOfState> out of temperature range 298.15 -> 20000;  T = 278.803
--> FOAM Warning : 
    From function Foam::scalar Foam::janafThermo<EquationOfState>::limit(Foam::scalar) const [with EquationOfState = Foam::perfectGas<Foam::specie>; Foam::scalar = double]
    in file /home/student/OpenFOAM/student-13/run/OpenFOAM-13/src/thermophysicalModels/specie/lnInclude/janafThermoI.H at line 117
    attempt to use janafThermo<EquationOfState> out of temperature range 298.15 -> 20000;  T = 278.746
--> FOAM Warning : 
    From function Foam::scalar Foam::janafThermo<EquationOfState>::limit(Foam::scalar) const [with EquationOfState = Foam::perfectGas<Foam::specie>; Foam::scalar = double]
    in file /home/student/OpenFOAM/student-13/run/OpenFOAM-13/src/thermophysicalModels/specie/lnInclude/janafThermoI.H at line 117
    attempt to use janafThermo<EquationOfState> out of temperature range 298.15 -> 20000;  T = 278.803
--> FOAM Warning : 
    From function Foam::scalar Foam::janafThermo<EquationOfState>::limit(Foam::scalar) const [with EquationOfState = Foam::perfectGas<Foam::specie>; Foam::scalar = double]
    in file /home/student/OpenFOAM/student-13/run/OpenFOAM-13/src/thermophysicalModels/specie/lnInclude/janafThermoI.H at line 117
    attempt to use janafThermo<EquationOfState> out of temperature range 298.15 -> 20000;  T = 278.746
--> FOAM Warning : 
    From function Foam::scalar Foam::janafThermo<EquationOfState>::limit(Foam::scalar) const [with EquationOfState = Foam::perfectGas<Foam::specie>; Foam::scalar = double]
    in file /home/student/OpenFOAM/student-13/run/OpenFOAM-13/src/thermophysicalModels/specie/lnInclude/janafThermoI.H at line 117
    attempt to use janafThermo<EquationOfState> out of temperature range 298.15 -> 20000;  T = 278.803
--> FOAM Warning : 
    From function Foam::scalar Foam::janafThermo<EquationOfState>::limit(Foam::scalar) const [with EquationOfState = Foam::perfectGas<Foam::specie>; Foam::scalar = double]
    in file /home/student/OpenFOAM/student-13/run/OpenFOAM-13/src/thermophysicalModels/specie/lnInclude/janafThermoI.H at line 117
    attempt to use janafThermo<EquationOfState> out of temperature range 298.15 -> 20000;  T = 278.746
--> FOAM Warning : 
    From function Foam::scalar Foam::janafThermo<EquationOfState>::limit(Foam::scalar) const [with EquationOfState = Foam::perfectGas<Foam::specie>; Foam::scalar = double]
    in file /home/student/OpenFOAM/student-13/run/OpenFOAM-13/src/thermophysicalModels/specie/lnInclude/janafThermoI.H at line 117
    attempt to use janafThermo<EquationOfState> out of temperature range 298.15 -> 20000;  T = 278.803
--> FOAM Warning : 
    From function Foam::scalar Foam::janafThermo<EquationOfState>::limit(Foam::scalar) const [with EquationOfState = Foam::perfectGas<Foam::specie>; Foam::scalar = double]
    in file /home/student/OpenFOAM/student-13/run/OpenFOAM-13/src/thermophysicalModels/specie/lnInclude/janafThermoI.H at line 117
    attempt to use janafThermo<EquationOfState> out of temperature range 298.15 -> 20000;  T = 278.746
--> FOAM Warning : 
    From function Foam::scalar Foam::janafThermo<EquationOfState>::limit(Foam::scalar) const [with EquationOfState = Foam::perfectGas<Foam::specie>; Foam::scalar = double]
    in file /home/student/OpenFOAM/student-13/run/OpenFOAM-13/src/thermophysicalModels/specie/lnInclude/janafThermoI.H at line 117
    attempt to use janafThermo<EquationOfState> out of temperature range 298.15 -> 20000;  T = 278.803
--> FOAM Warning : 
    From function Foam::scalar Foam::janafThermo<EquationOfState>::limit(Foam::scalar) const [with EquationOfState = Foam::perfectGas<Foam::specie>; Foam::scalar = double]
    in file /home/student/OpenFOAM/student-13/run/OpenFOAM-13/src/thermophysicalModels/specie/lnInclude/janafThermoI.H at line 117
    attempt to use janafThermo<EquationOfState> out of temperature range 298.15 -> 20000;  T = 278.746
--> FOAM Warning : 
    From function Foam::scalar Foam::janafThermo<EquationOfState>::limit(Foam::scalar) const [with EquationOfState = Foam::perfectGas<Foam::specie>; Foam::scalar = double]
    in file /home/student/OpenFOAM/student-13/run/OpenFOAM-13/src/thermophysicalModels/specie/lnInclude/janafThermoI.H at line 117
    attempt to use janafThermo<EquationOfState> out of temperature range 298.15 -> 20000;  T = 278.803
--> FOAM Warning : 
    From function Foam::scalar Foam::janafThermo<EquationOfState>::limit(Foam::scalar) const [with EquationOfState = Foam::perfectGas<Foam::specie>; Foam::scalar = double]
    in file /home/student/OpenFOAM/student-13/run/OpenFOAM-13/src/thermophysicalModels/specie/lnInclude/janafThermoI.H at line 117
    attempt to use janafThermo<EquationOfState> out of temperature range 298.15 -> 20000;  T = 278.746
--> FOAM Warning : 
    From function Foam::scalar Foam::janafThermo<EquationOfState>::limit(Foam::scalar) const [with EquationOfState = Foam::perfectGas<Foam::specie>; Foam::scalar = double]
    in file /home/student/OpenFOAM/student-13/run/OpenFOAM-13/src/thermophysicalModels/specie/lnInclude/janafThermoI.H at line 117
    attempt to use janafThermo<EquationOfState> out of temperature range 298.15 -> 20000;  T = 278.803
--> FOAM Warning : 
    From function Foam::scalar Foam::janafThermo<EquationOfState>::limit(Foam::scalar) const [with EquationOfState = Foam::perfectGas<Foam::specie>; Foam::scalar = double]
    in file /home/student/OpenFOAM/student-13/run/OpenFOAM-13/src/thermophysicalModels/specie/lnInclude/janafThermoI.H at line 117
    attempt to use janafThermo<EquationOfState> out of temperature range 298.15 -> 20000;  T = 278.746
--> FOAM Warning : 
    From function Foam::scalar Foam::janafThermo<EquationOfState>::limit(Foam::scalar) const [with EquationOfState = Foam::perfectGas<Foam::specie>; Foam::scalar = double]
    in file /home/student/OpenFOAM/student-13/run/OpenFOAM-13/src/thermophysicalModels/specie/lnInclude/janafThermoI.H at line 117
    attempt to use janafThermo<EquationOfState> out of temperature range 298.15 -> 20000;  T = 278.803
--> FOAM Warning : 
    From function Foam::scalar Foam::janafThermo<EquationOfState>::limit(Foam::scalar) const [with EquationOfState = Foam::perfectGas<Foam::specie>; Foam::scalar = double]
    in file /home/student/OpenFOAM/student-13/run/OpenFOAM-13/src/thermophysicalModels/specie/lnInclude/janafThermoI.H at line 117
    attempt to use janafThermo<EquationOfState> out of temperature range 298.15 -> 20000;  T = 278.746
--> FOAM Warning : 
    From function Foam::scalar Foam::janafThermo<EquationOfState>::limit(Foam::scalar) const [with EquationOfState = Foam::perfectGas<Foam::specie>; Foam::scalar = double]
    in file /home/student/OpenFOAM/student-13/run/OpenFOAM-13/src/thermophysicalModels/specie/lnInclude/janafThermoI.H at line 117
    attempt to use janafThermo<EquationOfState> out of temperature range 298.15 -> 20000;  T = 278.803
--> FOAM Warning : 
    From function Foam::scalar Foam::janafThermo<EquationOfState>::limit(Foam::scalar) const [with EquationOfState = Foam::perfectGas<Foam::specie>; Foam::scalar = double]
    in file /home/student/OpenFOAM/student-13/run/OpenFOAM-13/src/thermophysicalModels/specie/lnInclude/janafThermoI.H at line 117
    attempt to use janafThermo<EquationOfState> out of temperature range 298.15 -> 20000;  T = 278.746
--> FOAM Warning : 
    From function Foam::scalar Foam::janafThermo<EquationOfState>::limit(Foam::scalar) const [with EquationOfState = Foam::perfectGas<Foam::specie>; Foam::scalar = double]
    in file /home/student/OpenFOAM/student-13/run/OpenFOAM-13/src/thermophysicalModels/specie/lnInclude/janafThermoI.H at line 117
    attempt to use janafThermo<EquationOfState> out of temperature range 298.15 -> 20000;  T = 278.803
--> FOAM Warning : 
    From function Foam::scalar Foam::janafThermo<EquationOfState>::limit(Foam::scalar) const [with EquationOfState = Foam::perfectGas<Foam::specie>; Foam::scalar = double]
    in file /home/student/OpenFOAM/student-13/run/OpenFOAM-13/src/thermophysicalModels/specie/lnInclude/janafThermoI.H at line 117
    attempt to use janafThermo<EquationOfState> out of temperature range 298.15 -> 20000;  T = 278.746
--> FOAM Warning : 
    From function Foam::scalar Foam::janafThermo<EquationOfState>::limit(Foam::scalar) const [with EquationOfState = Foam::perfectGas<Foam::specie>; Foam::scalar = double]
    in file /home/student/OpenFOAM/student-13/run/OpenFOAM-13/src/thermophysicalModels/specie/lnInclude/janafThermoI.H at line 117
    attempt to use janafThermo<EquationOfState> out of temperature range 298.15 -> 20000;  T = 278.803
--> FOAM Warning : 
    From function Foam::scalar Foam::janafThermo<EquationOfState>::limit(Foam::scalar) const [with EquationOfState = Foam::perfectGas<Foam::specie>; Foam::scalar = double]
    in file /home/student/OpenFOAM/student-13/run/OpenFOAM-13/src/thermophysicalModels/specie/lnInclude/janafThermoI.H at line 117
    attempt to use janafThermo<EquationOfState> out of temperature range 298.15 -> 20000;  T = 278.746
--> FOAM Warning : 
    From function Foam::scalar Foam::janafThermo<EquationOfState>::limit(Foam::scalar) const [with EquationOfState = Foam::perfectGas<Foam::specie>; Foam::scalar = double]
    in file /home/student/OpenFOAM/student-13/run/OpenFOAM-13/src/thermophysicalModels/specie/lnInclude/janafThermoI.H at line 117
    attempt to use janafThermo<EquationOfState> out of temperature range 298.15 -> 20000;  T = 278.803
--> FOAM Warning : 
    From function Foam::scalar Foam::janafThermo<EquationOfState>::limit(Foam::scalar) const [with EquationOfState = Foam::perfectGas<Foam::specie>; Foam::scalar = double]
    in file /home/student/OpenFOAM/student-13/run/OpenFOAM-13/src/thermophysicalModels/specie/lnInclude/janafThermoI.H at line 117
    attempt to use janafThermo<EquationOfState> out of temperature range 298.15 -> 20000;  T = 278.746
--> FOAM Warning : 
    From function Foam::scalar Foam::janafThermo<EquationOfState>::limit(Foam::scalar) const [with EquationOfState = Foam::perfectGas<Foam::specie>; Foam::scalar = double]
    in file /home/student/OpenFOAM/student-13/run/OpenFOAM-13/src/thermophysicalModels/specie/lnInclude/janafThermoI.H at line 117
    attempt to use janafThermo<EquationOfState> out of temperature range 298.15 -> 20000;  T = 278.803
--> FOAM Warning : 
    From function Foam::scalar Foam::janafThermo<EquationOfState>::limit(Foam::scalar) const [with EquationOfState = Foam::perfectGas<Foam::specie>; Foam::scalar = double]
    in file /home/student/OpenFOAM/student-13/run/OpenFOAM-13/src/thermophysicalModels/specie/lnInclude/janafThermoI.H at line 117
    attempt to use janafThermo<EquationOfState> out of temperature range 298.15 -> 20000;  T = 278.746
--> FOAM Warning : 
    From function Foam::scalar Foam::janafThermo<EquationOfState>::limit(Foam::scalar) const [with EquationOfState = Foam::perfectGas<Foam::specie>; Foam::scalar = double]
    in file /home/student/OpenFOAM/student-13/run/OpenFOAM-13/src/thermophysicalModels/specie/lnInclude/janafThermoI.H at line 117
    attempt to use janafThermo<EquationOfState> out of temperature range 298.15 -> 20000;  T = 278.803
--> FOAM Warning : 
    From function Foam::scalar Foam::janafThermo<EquationOfState>::limit(Foam::scalar) const [with EquationOfState = Foam::perfectGas<Foam::specie>; Foam::scalar = double]
    in file /home/student/OpenFOAM/student-13/run/OpenFOAM-13/src/thermophysicalModels/specie/lnInclude/janafThermoI.H at line 117
    attempt to use janafThermo<EquationOfState> out of temperature range 298.15 -> 20000;  T = 278.746
--> FOAM Warning : 
    From function Foam::scalar Foam::janafThermo<EquationOfState>::limit(Foam::scalar) const [with EquationOfState = Foam::perfectGas<Foam::specie>; Foam::scalar = double]
    in file /home/student/OpenFOAM/student-13/run/OpenFOAM-13/src/thermophysicalModels/specie/lnInclude/janafThermoI.H at line 117
    attempt to use janafThermo<EquationOfState> out of temperature range 298.15 -> 20000;  T = 278.803
--> FOAM Warning : 
    From function Foam::scalar Foam::janafThermo<EquationOfState>::limit(Foam::scalar) const [with EquationOfState = Foam::perfectGas<Foam::specie>; Foam::scalar = double]
    in file /home/student/OpenFOAM/student-13/run/OpenFOAM-13/src/thermophysicalModels/specie/lnInclude/janafThermoI.H at line 117
    attempt to use janafThermo<EquationOfState> out of temperature range 298.15 -> 20000;  T = 278.746
--> FOAM Warning : 
    From function Foam::scalar Foam::janafThermo<EquationOfState>::limit(Foam::scalar) const [with EquationOfState = Foam::perfectGas<Foam::specie>; Foam::scalar = double]
    in file /home/student/OpenFOAM/student-13/run/OpenFOAM-13/src/thermophysicalModels/specie/lnInclude/janafThermoI.H at line 117
    attempt to use janafThermo<EquationOfState> out of temperature range 298.15 -> 20000;  T = 278.803
--> FOAM Warning : 
    From function Foam::scalar Foam::janafThermo<EquationOfState>::limit(Foam::scalar) const [with EquationOfState = Foam::perfectGas<Foam::specie>; Foam::scalar = double]
    in file /home/student/OpenFOAM/student-13/run/OpenFOAM-13/src/thermophysicalModels/specie/lnInclude/janafThermoI.H at line 117
    attempt to use janafThermo<EquationOfState> out of temperature range 298.15 -> 20000;  T = 278.746
--> FOAM Warning : 
    From function Foam::scalar Foam::janafThermo<EquationOfState>::limit(Foam::scalar) const [with EquationOfState = Foam::perfectGas<Foam::specie>; Foam::scalar = double]
    in file /home/student/OpenFOAM/student-13/run/OpenFOAM-13/src/thermophysicalModels/specie/lnInclude/janafThermoI.H at line 117
    attempt to use janafThermo<EquationOfState> out of temperature range 298.15 -> 20000;  T = 278.803
--> FOAM Warning : 
    From function Foam::scalar Foam::janafThermo<EquationOfState>::limit(Foam::scalar) const [with EquationOfState = Foam::perfectGas<Foam::specie>; Foam::scalar = double]
    in file /home/student/OpenFOAM/student-13/run/OpenFOAM-13/src/thermophysicalModels/specie/lnInclude/janafThermoI.H at line 117
    attempt to use janafThermo<EquationOfState> out of temperature range 298.15 -> 20000;  T = 278.746
--> FOAM Warning : 
    From function Foam::scalar Foam::janafThermo<EquationOfState>::limit(Foam::scalar) const [with EquationOfState = Foam::perfectGas<Foam::specie>; Foam::scalar = double]
    in file /home/student/OpenFOAM/student-13/run/OpenFOAM-13/src/thermophysicalModels/specie/lnInclude/janafThermoI.H at line 117
    attempt to use janafThermo<EquationOfState> out of temperature range 298.15 -> 20000;  T = 278.803
--> FOAM Warning : 
    From function Foam::scalar Foam::janafThermo<EquationOfState>::limit(Foam::scalar) const [with EquationOfState = Foam::perfectGas<Foam::specie>; Foam::scalar = double]
    in file /home/student/OpenFOAM/student-13/run/OpenFOAM-13/src/thermophysicalModels/specie/lnInclude/janafThermoI.H at line 117
    attempt to use janafThermo<EquationOfState> out of temperature range 298.15 -> 20000;  T = 278.746
--> FOAM Warning : 
    From function Foam::scalar Foam::janafThermo<EquationOfState>::limit(Foam::scalar) const [with EquationOfState = Foam::perfectGas<Foam::specie>; Foam::scalar = double]
    in file /home/student/OpenFOAM/student-13/run/OpenFOAM-13/src/thermophysicalModels/specie/lnInclude/janafThermoI.H at line 117
    attempt to use janafThermo<EquationOfState> out of temperature range 298.15 -> 20000;  T = 278.803
--> FOAM Warning : 
    From function Foam::scalar Foam::janafThermo<EquationOfState>::limit(Foam::scalar) const [with EquationOfState = Foam::perfectGas<Foam::specie>; Foam::scalar = double]
    in file /home/student/OpenFOAM/student-13/run/OpenFOAM-13/src/thermophysicalModels/specie/lnInclude/janafThermoI.H at line 117
    attempt to use janafThermo<EquationOfState> out of temperature range 298.15 -> 20000;  T = 278.746
--> FOAM Warning : 
    From function Foam::scalar Foam::janafThermo<EquationOfState>::limit(Foam::scalar) const [with EquationOfState = Foam::perfectGas<Foam::specie>; Foam::scalar = double]
    in file /home/student/OpenFOAM/student-13/run/OpenFOAM-13/src/thermophysicalModels/specie/lnInclude/janafThermoI.H at line 117
    attempt to use janafThermo<EquationOfState> out of temperature range 298.15 -> 20000;  T = 278.803
--> FOAM Warning : 
    From function Foam::scalar Foam::janafThermo<EquationOfState>::limit(Foam::scalar) const [with EquationOfState = Foam::perfectGas<Foam::specie>; Foam::scalar = double]
    in file /home/student/OpenFOAM/student-13/run/OpenFOAM-13/src/thermophysicalModels/specie/lnInclude/janafThermoI.H at line 117
    attempt to use janafThermo<EquationOfState> out of temperature range 298.15 -> 20000;  T = 278.746
--> FOAM Warning : 
    From function Foam::scalar Foam::janafThermo<EquationOfState>::limit(Foam::scalar) const [with EquationOfState = Foam::perfectGas<Foam::specie>; Foam::scalar = double]
    in file /home/student/OpenFOAM/student-13/run/OpenFOAM-13/src/thermophysicalModels/specie/lnInclude/janafThermoI.H at line 117
    attempt to use janafThermo<EquationOfState> out of temperature range 298.15 -> 20000;  T = 278.803
--> FOAM Warning : 
    From function Foam::scalar Foam::janafThermo<EquationOfState>::limit(Foam::scalar) const [with EquationOfState = Foam::perfectGas<Foam::specie>; Foam::scalar = double]
    in file /home/student/OpenFOAM/student-13/run/OpenFOAM-13/src/thermophysicalModels/specie/lnInclude/janafThermoI.H at line 117
    attempt to use janafThermo<EquationOfState> out of temperature range 298.15 -> 20000;  T = 278.746
--> FOAM Warning : 
    From function Foam::scalar Foam::janafThermo<EquationOfState>::limit(Foam::scalar) const [with EquationOfState = Foam::perfectGas<Foam::specie>; Foam::scalar = double]
    in file /home/student/OpenFOAM/student-13/run/OpenFOAM-13/src/thermophysicalModels/specie/lnInclude/janafThermoI.H at line 117
    attempt to use janafThermo<EquationOfState> out of temperature range 298.15 -> 20000;  T = 278.803
--> FOAM Warning : 
    From function Foam::scalar Foam::janafThermo<EquationOfState>::limit(Foam::scalar) const [with EquationOfState = Foam::perfectGas<Foam::specie>; Foam::scalar = double]
    in file /home/student/OpenFOAM/student-13/run/OpenFOAM-13/src/thermophysicalModels/specie/lnInclude/janafThermoI.H at line 117
    attempt to use janafThermo<EquationOfState> out of temperature range 298.15 -> 20000;  T = 278.746
--> FOAM Warning : 
    From function Foam::scalar Foam::janafThermo<EquationOfState>::limit(Foam::scalar) const [with EquationOfState = Foam::perfectGas<Foam::specie>; Foam::scalar = double]
    in file /home/student/OpenFOAM/student-13/run/OpenFOAM-13/src/thermophysicalModels/specie/lnInclude/janafThermoI.H at line 117
    attempt to use janafThermo<EquationOfState> out of temperature range 298.15 -> 20000;  T = 278.803
--> FOAM Warning : 
    From function Foam::scalar Foam::janafThermo<EquationOfState>::limit(Foam::scalar) const [with EquationOfState = Foam::perfectGas<Foam::specie>; Foam::scalar = double]
    in file /home/student/OpenFOAM/student-13/run/OpenFOAM-13/src/thermophysicalModels/specie/lnInclude/janafThermoI.H at line 117
    attempt to use janafThermo<EquationOfState> out of temperature range 298.15 -> 20000;  T = 278.746
--> FOAM Warning : 
    From function Foam::scalar Foam::janafThermo<EquationOfState>::limit(Foam::scalar) const [with EquationOfState = Foam::perfectGas<Foam::specie>; Foam::scalar = double]
    in file /home/student/OpenFOAM/student-13/run/OpenFOAM-13/src/thermophysicalModels/specie/lnInclude/janafThermoI.H at line 117
    attempt to use janafThermo<EquationOfState> out of temperature range 298.15 -> 20000;  T = 278.803
--> FOAM Warning : 
    From function Foam::scalar Foam::janafThermo<EquationOfState>::limit(Foam::scalar) const [with EquationOfState = Foam::perfectGas<Foam::specie>; Foam::scalar = double]
    in file /home/student/OpenFOAM/student-13/run/OpenFOAM-13/src/thermophysicalModels/specie/lnInclude/janafThermoI.H at line 117
    attempt to use janafThermo<EquationOfState> out of temperature range 298.15 -> 20000;  T = 278.746
--> FOAM Warning : 
    From function Foam::scalar Foam::janafThermo<EquationOfState>::limit(Foam::scalar) const [with EquationOfState = Foam::perfectGas<Foam::specie>; Foam::scalar = double]
    in file /home/student/OpenFOAM/student-13/run/OpenFOAM-13/src/thermophysicalModels/specie/lnInclude/janafThermoI.H at line 117
[...]
DILUPBiCG:  Solving for NO+, Initial residual = 0, Final residual = 0, No Iterations 0
DILUPBiCG:  Solving for N2+, Initial residual = 0, Final residual = 0, No Iterations 0
DILUPBiCG:  Solving for O+, Initial residual = 0, Final residual = 0, No Iterations 0
DILUPBiCG:  Solving for O2+, Initial residual = 0, Final residual = 0, No Iterations 0
smoothSolver:  Solving for e, Initial residual = 0.000942048, Final residual = 3.33977e-14, No Iterations 2
implement your two-temperature model here
PIMPLE: Iteration 2
diagonal:  Solving for rho, Initial residual = 0, Final residual = 0, No Iterations 0
smoothSolver:  Solving for Ux, Initial residual = 6.06197e-05, Final residual = 1.37471e-15, No Iterations 2
DILUPBiCG:  Solving for O2, Initial residual = 0.00124886, Final residual = 2.81703e-19, No Iterations 1
DILUPBiCG:  Solving for O, Initial residual = 0, Final residual = 0, No Iterations 0
DILUPBiCG:  Solving for N, Initial residual = 0, Final residual = 0, No Iterations 0
DILUPBiCG:  Solving for NO, Initial residual = 0, Final residual = 0, No Iterations 0
DILUPBiCG:  Solving for e-, Initial residual = 0, Final residual = 0, No Iterations 0
DILUPBiCG:  Solving for N+, Initial residual = 0, Final residual = 0, No Iterations 0
DILUPBiCG:  Solving for NO+, Initial residual = 0, Final residual = 0, No Iterations 0
DILUPBiCG:  Solving for N2+, Initial residual = 0, Final residual = 0, No Iterations 0
DILUPBiCG:  Solving for O+, Initial residual = 0, Final residual = 0, No Iterations 0
DILUPBiCG:  Solving for O2+, Initial residual = 0, Final residual = 0, No Iterations 0
smoothSolver:  Solving for e, Initial residual = 0.000307548, Final residual = 1.07135e-14, No Iterations 2
implement your two-temperature model here
ExecutionTime = 9.28584 s  ClockTime = 25 s

Courant Number mean: 0.107568 max: 0.183182
Time = 0.002815s

PIMPLE: Iteration 1
diagonal:  Solving for rho, Initial residual = 0, Final residual = 0, No Iterations 0
smoothSolver:  Solving for Ux, Initial residual = 0.000390518, Final residual = 4.40455e-15, No Iterations 2
DILUPBiCG:  Solving for O2, Initial residual = 0.0013867, Final residual = 9.52556e-19, No Iterations 1
DILUPBiCG:  Solving for O, Initial residual = 0, Final residual = 0, No Iterations 0
DILUPBiCG:  Solving for N, Initial residual = 0, Final residual = 0, No Iterations 0
DILUPBiCG:  Solving for NO, Initial residual = 0, Final residual = 0, No Iterations 0
DILUPBiCG:  Solving for e-, Initial residual = 0, Final residual = 0, No Iterations 0
DILUPBiCG:  Solving for N+, Initial residual = 0, Final residual = 0, No Iterations 0
DILUPBiCG:  Solving for NO+, Initial residual = 0, Final residual = 0, No Iterations 0
DILUPBiCG:  Solving for N2+, Initial residual = 0, Final residual = 0, No Iterations 0
DILUPBiCG:  Solving for O+, Initial residual = 0, Final residual = 0, No Iterations 0
DILUPBiCG:  Solving for O2+, Initial residual = 0, Final residual = 0, No Iterations 0
smoothSolver:  Solving for e, Initial residual = 0.00094461, Final residual = 3.37147e-14, No Iterations 2
implement your two-temperature model here
PIMPLE: Iteration 2
diagonal:  Solving for rho, Initial residual = 0, Final residual = 0, No Iterations 0
smoothSolver:  Solving for Ux, Initial residual = 5.62333e-05, Final residual = 1.25943e-15, No Iterations 2
DILUPBiCG:  Solving for O2, Initial residual = 0.00142837, Final residual = 1.58154e-19, No Iterations 1
DILUPBiCG:  Solving for O, Initial residual = 0, Final residual = 0, No Iterations 0
DILUPBiCG:  Solving for N, Initial residual = 0, Final residual = 0, No Iterations 0
DILUPBiCG:  Solving for NO, Initial residual = 0, Final residual = 0, No Iterations 0
DILUPBiCG:  Solving for e-, Initial residual = 0, Final residual = 0, No Iterations 0
DILUPBiCG:  Solving for N+, Initial residual = 0, Final residual = 0, No Iterations 0
DILUPBiCG:  Solving for NO+, Initial residual = 0, Final residual = 0, No Iterations 0
DILUPBiCG:  Solving for N2+, Initial residual = 0, Final residual = 0, No Iterations 0
DILUPBiCG:  Solving for O+, Initial residual = 0, Final residual = 0, No Iterations 0
DILUPBiCG:  Solving for O2+, Initial residual = 0, Final residual = 0, No Iterations 0
smoothSolver:  Solving for e, Initial residual = 0.000303036, Final residual = 1.01896e-14, No Iterations 2
implement your two-temperature model here
ExecutionTime = 9.30119 s  ClockTime = 25 s

Courant Number mean: 0.107599 max: 0.183182
Time = 0.00282s

PIMPLE: Iteration 1
diagonal:  Solving for rho, Initial residual = 0, Final residual = 0, No Iterations 0
smoothSolver:  Solving for Ux, Initial residual = 0.000390389, Final residual = 4.40255e-15, No Iterations 2
DILUPBiCG:  Solving for O2, Initial residual = 0.0014163, Final residual = 1.59923e-18, No Iterations 1
DILUPBiCG:  Solving for O, Initial residual = 0, Final residual = 0, No Iterations 0
DILUPBiCG:  Solving for N, Initial residual = 0, Final residual = 0, No Iterations 0
DILUPBiCG:  Solving for NO, Initial residual = 0, Final residual = 0, No Iterations 0
DILUPBiCG:  Solving for e-, Initial residual = 0, Final residual = 0, No Iterations 0
DILUPBiCG:  Solving for N+, Initial residual = 0, Final residual = 0, No Iterations 0
DILUPBiCG:  Solving for NO+, Initial residual = 0, Final residual = 0, No Iterations 0
DILUPBiCG:  Solving for N2+, Initial residual = 0, Final residual = 0, No Iterations 0
DILUPBiCG:  Solving for O+, Initial residual = 0, Final residual = 0, No Iterations 0
DILUPBiCG:  Solving for O2+, Initial residual = 0, Final residual = 0, No Iterations 0
smoothSolver:  Solving for e, Initial residual = 0.000945702, Final residual = 3.37538e-14, No Iterations 2
implement your two-temperature model here
PIMPLE: Iteration 2
diagonal:  Solving for rho, Initial residual = 0, Final residual = 0, No Iterations 0
smoothSolver:  Solving for Ux, Initial residual = 5.10201e-05, Final residual = 1.14525e-15, No Iterations 2
DILUPBiCG:  Solving for O2, Initial residual = 0.00123913, Final residual = 1.0972e-18, No Iterations 1
DILUPBiCG:  Solving for O, Initial residual = 0, Final residual = 0, No Iterations 0
DILUPBiCG:  Solving for N, Initial residual = 0, Final residual = 0, No Iterations 0
DILUPBiCG:  Solving for NO, Initial residual = 0, Final residual = 0, No Iterations 0
DILUPBiCG:  Solving for e-, Initial residual = 0, Final residual = 0, No Iterations 0
DILUPBiCG:  Solving for N+, Initial residual = 0, Final residual = 0, No Iterations 0
DILUPBiCG:  Solving for NO+, Initial residual = 0, Final residual = 0, No Iterations 0
DILUPBiCG:  Solving for N2+, Initial residual = 0, Final residual = 0, No Iterations 0
DILUPBiCG:  Solving for O+, Initial residual = 0, Final residual = 0, No Iterations 0
DILUPBiCG:  Solving for O2+, Initial residual = 0, Final residual = 0, No Iterations 0
smoothSolver:  Solving for e, Initial residual = 0.000296994, Final residual = 9.68006e-15, No Iterations 2
implement your two-temperature model here
ExecutionTime = 9.31583 s  ClockTime = 26 s

Courant Number mean: 0.107629 max: 0.183182
Time = 0.002825s

PIMPLE: Iteration 1
diagonal:  Solving for rho, Initial residual = 0, Final residual = 0, No Iterations 0
smoothSolver:  Solving for Ux, Initial residual = 0.000389702, Final residual = 4.37825e-15, No Iterations 2
DILUPBiCG:  Solving for O2, Initial residual = 0.00142645, Final residual = 3.6176e-19, No Iterations 1
DILUPBiCG:  Solving for O, Initial residual = 0, Final residual = 0, No Iterations 0
DILUPBiCG:  Solving for N, Initial residual = 0, Final residual = 0, No Iterations 0
DILUPBiCG:  Solving for NO, Initial residual = 0, Final residual = 0, No Iterations 0
DILUPBiCG:  Solving for e-, Initial residual = 0, Final residual = 0, No Iterations 0
DILUPBiCG:  Solving for N+, Initial residual = 0, Final residual = 0, No Iterations 0
DILUPBiCG:  Solving for NO+, Initial residual = 0, Final residual = 0, No Iterations 0
DILUPBiCG:  Solving for N2+, Initial residual = 0, Final residual = 0, No Iterations 0
DILUPBiCG:  Solving for O+, Initial residual = 0, Final residual = 0, No Iterations 0
DILUPBiCG:  Solving for O2+, Initial residual = 0, Final residual = 0, No Iterations 0
smoothSolver:  Solving for e, Initial residual = 0.000944911, Final residual = 3.35997e-14, No Iterations 2
implement your two-temperature model here
PIMPLE: Iteration 2
diagonal:  Solving for rho, Initial residual = 0, Final residual = 0, No Iterations 0
smoothSolver:  Solving for Ux, Initial residual = 4.83117e-05, Final residual = 1.1206e-15, No Iterations 2
DILUPBiCG:  Solving for O2, Initial residual = 0.00135896, Final residual = 7.2037e-19, No Iterations 1
DILUPBiCG:  Solving for O, Initial residual = 0, Final residual = 0, No Iterations 0
DILUPBiCG:  Solving for N, Initial residual = 0, Final residual = 0, No Iterations 0
DILUPBiCG:  Solving for NO, Initial residual = 0, Final residual = 0, No Iterations 0
DILUPBiCG:  Solving for e-, Initial residual = 0, Final residual = 0, No Iterations 0
DILUPBiCG:  Solving for N+, Initial residual = 0, Final residual = 0, No Iterations 0
DILUPBiCG:  Solving for NO+, Initial residual = 0, Final residual = 0, No Iterations 0
DILUPBiCG:  Solving for N2+, Initial residual = 0, Final residual = 0, No Iterations 0
DILUPBiCG:  Solving for O+, Initial residual = 0, Final residual = 0, No Iterations 0
DILUPBiCG:  Solving for O2+, Initial residual = 0, Final residual = 0, No Iterations 0
smoothSolver:  Solving for e, Initial residual = 0.000293011, Final residual = 9.52696e-15, No Iterations 2
implement your two-temperature model here
ExecutionTime = 9.33005 s  ClockTime = 26 s

Courant Number mean: 0.107661 max: 0.183182
Time = 0.00283s

PIMPLE: Iteration 1
diagonal:  Solving for rho, Initial residual = 0, Final residual = 0, No Iterations 0
smoothSolver:  Solving for Ux, Initial residual = 0.000388981, Final residual = 4.35959e-15, No Iterations 2
DILUPBiCG:  Solving for O2, Initial residual = 0.00138747, Final residual = 3.54236e-19, No Iterations 1
DILUPBiCG:  Solving for O, Initial residual = 0, Final residual = 0, No Iterations 0
DILUPBiCG:  Solving for N, Initial residual = 0, Final residual = 0, No Iterations 0
DILUPBiCG:  Solving for NO, Initial residual = 0, Final residual = 0, No Iterations 0
DILUPBiCG:  Solving for e-, Initial residual = 0, Final residual = 0, No Iterations 0
DILUPBiCG:  Solving for N+, Initial residual = 0, Final residual = 0, No Iterations 0
DILUPBiCG:  Solving for NO+, Initial residual = 0, Final residual = 0, No Iterations 0
DILUPBiCG:  Solving for N2+, Initial residual = 0, Final residual = 0, No Iterations 0
DILUPBiCG:  Solving for O+, Initial residual = 0, Final residual = 0, No Iterations 0
DILUPBiCG:  Solving for O2+, Initial residual = 0, Final residual = 0, No Iterations 0
smoothSolver:  Solving for e, Initial residual = 0.000944122, Final residual = 3.34765e-14, No Iterations 2
implement your two-temperature model here
PIMPLE: Iteration 2
diagonal:  Solving for rho, Initial residual = 0, Final residual = 0, No Iterations 0
smoothSolver:  Solving for Ux, Initial residual = 5.69585e-05, Final residual = 1.34644e-15, No Iterations 2
DILUPBiCG:  Solving for O2, Initial residual = 0.00131183, Final residual = 3.02875e-19, No Iterations 1
DILUPBiCG:  Solving for O, Initial residual = 0, Final residual = 0, No Iterations 0
DILUPBiCG:  Solving for N, Initial residual = 0, Final residual = 0, No Iterations 0
DILUPBiCG:  Solving for NO, Initial residual = 0, Final residual = 0, No Iterations 0
DILUPBiCG:  Solving for e-, Initial residual = 0, Final residual = 0, No Iterations 0
DILUPBiCG:  Solving for N+, Initial residual = 0, Final residual = 0, No Iterations 0
DILUPBiCG:  Solving for NO+, Initial residual = 0, Final residual = 0, No Iterations 0
DILUPBiCG:  Solving for N2+, Initial residual = 0, Final residual = 0, No Iterations 0
DILUPBiCG:  Solving for O+, Initial residual = 0, Final residual = 0, No Iterations 0
DILUPBiCG:  Solving for O2+, Initial residual = 0, Final residual = 0, No Iterations 0
smoothSolver:  Solving for e, Initial residual = 0.000291597, Final residual = 9.55744e-15, No Iterations 2
implement your two-temperature model here
ExecutionTime = 9.34597 s  ClockTime = 26 s

Courant Number mean: 0.107693 max: 0.183182
Time = 0.002835s

PIMPLE: Iteration 1
diagonal:  Solving for rho, Initial residual = 0, Final residual = 0, No Iterations 0
smoothSolver:  Solving for Ux, Initial residual = 0.000388124, Final residual = 4.33875e-15, No Iterations 2
DILUPBiCG:  Solving for O2, Initial residual = 0.00134345, Final residual = 6.81122e-19, No Iterations 1
DILUPBiCG:  Solving for O, Initial residual = 0, Final residual = 0, No Iterations 0
DILUPBiCG:  Solving for N, Initial residual = 0, Final residual = 0, No Iterations 0
DILUPBiCG:  Solving for NO, Initial residual = 0, Final residual = 0, No Iterations 0
DILUPBiCG:  Solving for e-, Initial residual = 0, Final residual = 0, No Iterations 0
DILUPBiCG:  Solving for N+, Initial residual = 0, Final residual = 0, No Iterations 0
DILUPBiCG:  Solving for NO+, Initial residual = 0, Final residual = 0, No Iterations 0
DILUPBiCG:  Solving for N2+, Initial residual = 0, Final residual = 0, No Iterations 0
DILUPBiCG:  Solving for O+, Initial residual = 0, Final residual = 0, No Iterations 0
DILUPBiCG:  Solving for O2+, Initial residual = 0, Final residual = 0, No Iterations 0
smoothSolver:  Solving for e, Initial residual = 0.00094284, Final residual = 3.33116e-14, No Iterations 2
implement your two-temperature model here
PIMPLE: Iteration 2
diagonal:  Solving for rho, Initial residual = 0, Final residual = 0, No Iterations 0
smoothSolver:  Solving for Ux, Initial residual = 6.16229e-05, Final residual = 1.43606e-15, No Iterations 2
DILUPBiCG:  Solving for O2, Initial residual = 0.0014426, Final residual = 9.8904e-19, No Iterations 1
DILUPBiCG:  Solving for O, Initial residual = 0, Final residual = 0, No Iterations 0
DILUPBiCG:  Solving for N, Initial residual = 0, Final residual = 0, No Iterations 0
DILUPBiCG:  Solving for NO, Initial residual = 0, Final residual = 0, No Iterations 0
DILUPBiCG:  Solving for e-, Initial residual = 0, Final residual = 0, No Iterations 0
DILUPBiCG:  Solving for N+, Initial residual = 0, Final residual = 0, No Iterations 0
DILUPBiCG:  Solving for NO+, Initial residual = 0, Final residual = 0, No Iterations 0
DILUPBiCG:  Solving for N2+, Initial residual = 0, Final residual = 0, No Iterations 0
DILUPBiCG:  Solving for O+, Initial residual = 0, Final residual = 0, No Iterations 0
DILUPBiCG:  Solving for O2+, Initial residual = 0, Final residual = 0, No Iterations 0
smoothSolver:  Solving for e, Initial residual = 0.000302159, Final residual = 1.04922e-14, No Iterations 2
implement your two-temperature model here
ExecutionTime = 9.36077 s  ClockTime = 26 s

Courant Number mean: 0.107724 max: 0.183182
Time = 0.00284s

PIMPLE: Iteration 1
diagonal:  Solving for rho, Initial residual = 0, Final residual = 0, No Iterations 0
smoothSolver:  Solving for Ux, Initial residual = 0.000387196, Final residual = 4.32048e-15, No Iterations 2
DILUPBiCG:  Solving for O2, Initial residual = 0.0013768, Final residual = 3.10418e-19, No Iterations 1
DILUPBiCG:  Solving for O, Initial residual = 0, Final residual = 0, No Iterations 0
DILUPBiCG:  Solving for N, Initial residual = 0, Final residual = 0, No Iterations 0
DILUPBiCG:  Solving for NO, Initial residual = 0, Final residual = 0, No Iterations 0
DILUPBiCG:  Solving for e-, Initial residual = 0, Final residual = 0, No Iterations 0
DILUPBiCG:  Solving for N+, Initial residual = 0, Final residual = 0, No Iterations 0
DILUPBiCG:  Solving for NO+, Initial residual = 0, Final residual = 0, No Iterations 0
DILUPBiCG:  Solving for N2+, Initial residual = 0, Final residual = 0, No Iterations 0
DILUPBiCG:  Solving for O+, Initial residual = 0, Final residual = 0, No Iterations 0
DILUPBiCG:  Solving for O2+, Initial residual = 0, Final residual = 0, No Iterations 0
smoothSolver:  Solving for e, Initial residual = 0.000941377, Final residual = 3.32173e-14, No Iterations 2
implement your two-temperature model here
PIMPLE: Iteration 2
diagonal:  Solving for rho, Initial residual = 0, Final residual = 0, No Iterations 0
smoothSolver:  Solving for Ux, Initial residual = 6.20349e-05, Final residual = 1.42306e-15, No Iterations 2
DILUPBiCG:  Solving for O2, Initial residual = 0.00137294, Final residual = 1.19908e-18, No Iterations 1
DILUPBiCG:  Solving for O, Initial residual = 0, Final residual = 0, No Iterations 0
DILUPBiCG:  Solving for N, Initial residual = 0, Final residual = 0, No Iterations 0
DILUPBiCG:  Solving for NO, Initial residual = 0, Final residual = 0, No Iterations 0
DILUPBiCG:  Solving for e-, Initial residual = 0, Final residual = 0, No Iterations 0
DILUPBiCG:  Solving for N+, Initial residual = 0, Final residual = 0, No Iterations 0
DILUPBiCG:  Solving for NO+, Initial residual = 0, Final residual = 0, No Iterations 0
DILUPBiCG:  Solving for N2+, Initial residual = 0, Final residual = 0, No Iterations 0
DILUPBiCG:  Solving for O+, Initial residual = 0, Final residual = 0, No Iterations 0
DILUPBiCG:  Solving for O2+, Initial residual = 0, Final residual = 0, No Iterations 0
smoothSolver:  Solving for e, Initial residual = 0.000307418, Final residual = 1.08255e-14, No Iterations 2
implement your two-temperature model here
ExecutionTime = 9.37569 s  ClockTime = 26 s

Courant Number mean: 0.107754 max: 0.183182
Time = 0.002845s

PIMPLE: Iteration 1
diagonal:  Solving for rho, Initial residual = 0, Final residual = 0, No Iterations 0
smoothSolver:  Solving for Ux, Initial residual = 0.000386954, Final residual = 4.34255e-15, No Iterations 2
DILUPBiCG:  Solving for O2, Initial residual = 0.00135537, Final residual = 1.88738e-19, No Iterations 1
DILUPBiCG:  Solving for O, Initial residual = 0, Final residual = 0, No Iterations 0
DILUPBiCG:  Solving for N, Initial residual = 0, Final residual = 0, No Iterations 0
DILUPBiCG:  Solving for NO, Initial residual = 0, Final residual = 0, No Iterations 0
DILUPBiCG:  Solving for e-, Initial residual = 0, Final residual = 0, No Iterations 0
DILUPBiCG:  Solving for N+, Initial residual = 0, Final residual = 0, No Iterations 0
DILUPBiCG:  Solving for NO+, Initial residual = 0, Final residual = 0, No Iterations 0
DILUPBiCG:  Solving for N2+, Initial residual = 0, Final residual = 0, No Iterations 0
DILUPBiCG:  Solving for O+, Initial residual = 0, Final residual = 0, No Iterations 0
DILUPBiCG:  Solving for O2+, Initial residual = 0, Final residual = 0, No Iterations 0
smoothSolver:  Solving for e, Initial residual = 0.000942348, Final residual = 3.34519e-14, No Iterations 2
implement your two-temperature model here
PIMPLE: Iteration 2
diagonal:  Solving for rho, Initial residual = 0, Final residual = 0, No Iterations 0
smoothSolver:  Solving for Ux, Initial residual = 5.95081e-05, Final residual = 1.34562e-15, No Iterations 2
DILUPBiCG:  Solving for O2, Initial residual = 0.0013972, Final residual = 2.86862e-19, No Iterations 1
DILUPBiCG:  Solving for O, Initial residual = 0, Final residual = 0, No Iterations 0
DILUPBiCG:  Solving for N, Initial residual = 0, Final residual = 0, No Iterations 0
DILUPBiCG:  Solving for NO, Initial residual = 0, Final residual = 0, No Iterations 0
DILUPBiCG:  Solving for e-, Initial residual = 0, Final residual = 0, No Iterations 0
DILUPBiCG:  Solving for N+, Initial residual = 0, Final residual = 0, No Iterations 0
DILUPBiCG:  Solving for NO+, Initial residual = 0, Final residual = 0, No Iterations 0
DILUPBiCG:  Solving for N2+, Initial residual = 0, Final residual = 0, No Iterations 0
DILUPBiCG:  Solving for O+, Initial residual = 0, Final residual = 0, No Iterations 0
DILUPBiCG:  Solving for O2+, Initial residual = 0, Final residual = 0, No Iterations 0
smoothSolver:  Solving for e, Initial residual = 0.000306994, Final residual = 1.06477e-14, No Iterations 2
implement your two-temperature model here
ExecutionTime = 9.38996 s  ClockTime = 26 s

