/*---------------------------------------------------------------------------*\
  =========                 |
  \\      /  F ield         | OpenFOAM: The Open Source CFD Toolbox
   \\    /   O peration     | Website:  https://openfoam.org
    \\  /    A nd           | Version:  13
     \\/     M anipulation  |
\*---------------------------------------------------------------------------*/
Build  : 13-283650f815b4
Exec   : foamRun
Date   : Nov 05 2025
Time   : 12:10:14
Host   : "0febbc1d5107"
PID    : 39034
I/O    : uncollated
Case   : /home/student/OpenFOAM/student-13/run/aeroHPC/OpenFOAM/tutorials/shockThermo/shockTube
nProcs : 1
sigFpe : Enabling floating point exception trapping (FOAM_SIGFPE).
fileModificationChecking : Monitoring run-time modified files using timeStampMaster (fileModificationSkew 10)
allowSystemOperations : Allowing user-supplied system call operations

// * * * * * * * * * * * * * * * * * * * * * * * * * * * * * * * * * * * * * //
Create time

Create mesh for time = 0

Selecting solver shockThermo


--> FOAM FATAL IO ERROR: 
Cannot open include file "/home/student/OpenFOAM/student-13/run/aeroHPC/OpenFOAM/tutorials/shockThermo/shockTube/constant/speciesThermo.rrho" while reading dictionary "/home/student/OpenFOAM/student-13/run/aeroHPC/OpenFOAM/tutorials/shockThermo/shockTube/constant/physicalProperties"

file: /home/student/OpenFOAM/student-13/run/aeroHPC/OpenFOAM/tutorials/shockThermo/shockTube/constant/physicalProperties at line 31.

    From function static bool Foam::functionEntries::includeEntry::execute(Foam::dictionary&, Foam::Istream&)
    in file db/dictionary/functionEntries/includeEntry/includeEntry.C at line 258.

FOAM exiting

